data_co_formate_298k
_audit_creation_date              2017-06-21
_audit_creation_method
;
Olex2 1.2
(compiled 2017.03.28 svn.r3405 for OlexSys, GUI svn.r5337)
;
_shelx_SHELXL_version_number      '2016/6'
_publ_contact_author_address      ?
_publ_contact_author_email        ?
_publ_contact_author_id_orcid     ?
_publ_contact_author_name         ''
_publ_contact_author_phone        ?
_publ_section_references
;
Dolomanov, O.V., Bourhis, L.J., Gildea, R.J, Howard, J.A.K. & Puschmann, H.
 (2009), J. Appl. Cryst. 42, 339-341.

Sheldrick, G.M. (2008). Acta Cryst. A64, 112-122.
;
_chemical_name_common             ?
_chemical_name_systematic         ?
_chemical_formula_moiety          'C3 H3 Co O6, H5 N2'
_chemical_formula_sum             'C3 H8 Co N2 O6'
_chemical_formula_weight          227.04
_chemical_absolute_configuration  ad
_chemical_melting_point           ?
loop_
  _atom_type_symbol
  _atom_type_description
  _atom_type_scat_dispersion_real
  _atom_type_scat_dispersion_imag
  _atom_type_scat_source
 'C' 'C' 0.0181 0.0091 'International Tables Vol C Tables 4.2.6.8 and 6.1.1.4'
 'H' 'H' 0.0000 0.0000 'International Tables Vol C Tables 4.2.6.8 and 6.1.1.4'
 'Co' 'Co' -2.3653 3.6143
 'International Tables Vol C Tables 4.2.6.8 and 6.1.1.4'
 'N' 'N' 0.0311 0.0180 'International Tables Vol C Tables 4.2.6.8 and 6.1.1.4'
 'O' 'O' 0.0492 0.0322 'International Tables Vol C Tables 4.2.6.8 and 6.1.1.4'

_shelx_space_group_comment
;
The symmetry employed for this shelxl refinement is uniquely defined
by the following loop, which should always be used as a source of
symmetry information in preference to the above space-group names.
They are only intended as comments.
;
_space_group_crystal_system       'orthorhombic'
_space_group_IT_number            33
_space_group_name_H-M_alt         'P n a 21'
_space_group_name_Hall            'P 2c -2n'
loop_
  _space_group_symop_operation_xyz
 'x, y, z'
 '-x, -y, z+1/2'
 '-x+1/2, y+1/2, z+1/2'
 'x+1/2, -y+1/2, z'

_cell_length_a                    8.6592(3)
_cell_length_b                    7.7641(2)
_cell_length_c                    11.5528(4)
_cell_angle_alpha                 90
_cell_angle_beta                  90
_cell_angle_gamma                 90
_cell_volume                      776.71(4)
_cell_formula_units_Z             4
_cell_measurement_reflns_used     4327
_cell_measurement_temperature     298(2)
_cell_measurement_theta_max       76.76
_cell_measurement_theta_min       7.66
_shelx_estimated_absorpt_T_max    0.431
_shelx_estimated_absorpt_T_min    0.241
_exptl_absorpt_coefficient_mu     17.430
_exptl_absorpt_correction_T_max   0.3474
_exptl_absorpt_correction_T_min   0.1539
_exptl_absorpt_correction_type    multi-scan
_exptl_absorpt_process_details
;
SADABS-2016/2 (Bruker,2016/2) was used for absorption correction.
wR2(int) was 0.1554 before and 0.0938 after correction.
The Ratio of minimum to maximum transmission is 0.4430.
The \l/2 correction factor is Not present.
;
_exptl_absorpt_special_details    ?
_exptl_crystal_colour             pink
_exptl_crystal_density_diffrn     1.942
_exptl_crystal_density_meas       ?
_exptl_crystal_density_method     ?
_exptl_crystal_description        block
_exptl_crystal_F_000              460
_exptl_crystal_size_max           0.114
_exptl_crystal_size_mid           0.097
_exptl_crystal_size_min           0.058
_exptl_transmission_factor_max    ?
_exptl_transmission_factor_min    ?
_diffrn_reflns_av_R_equivalents   0.0993
_diffrn_reflns_av_unetI/netI      0.0595
_diffrn_reflns_Laue_measured_fraction_full 0.999
_diffrn_reflns_Laue_measured_fraction_max 0.998
_diffrn_reflns_limit_h_max        10
_diffrn_reflns_limit_h_min        -10
_diffrn_reflns_limit_k_max        9
_diffrn_reflns_limit_k_min        -9
_diffrn_reflns_limit_l_max        14
_diffrn_reflns_limit_l_min        -14
_diffrn_reflns_number             11359
_diffrn_reflns_point_group_measured_fraction_full 0.999
_diffrn_reflns_point_group_measured_fraction_max 0.998
_diffrn_reflns_theta_full         67.679
_diffrn_reflns_theta_max          77.117
_diffrn_reflns_theta_min          3.826
_diffrn_ambient_temperature       298.01
_diffrn_detector_area_resol_mean  ?
_diffrn_measured_fraction_theta_full 0.999
_diffrn_measured_fraction_theta_max 0.998
_diffrn_measurement_device_type   'Bruker D8 Venture PHOTON 100 CMOS'
_diffrn_measurement_method        'omega scans'
_diffrn_radiation_monochromator   mirrors
_diffrn_radiation_type            CuK\a
_diffrn_radiation_wavelength      1.54178
_diffrn_source                    'INCOATEC Imus micro-focus source'
_diffrn_standards_number          0
_reflns_Friedel_coverage          0.905
_reflns_Friedel_fraction_full     1.000
_reflns_Friedel_fraction_max      0.999
_reflns_number_gt                 1282
_reflns_number_total              1620
_reflns_special_details
;
 Reflections were merged by SHELXL according to the crystal
 class for the calculation of statistics and refinement.
 
 _reflns_Friedel_fraction is defined as the number of unique
 Friedel pairs measured divided by the number that would be
 possible theoretically, ignoring centric projections and
 systematic absences.
;
_reflns_threshold_expression      'I > 2\s(I)'
_computing_cell_refinement        'SAINT v8.37A (Bruker, 2015)'
_computing_data_collection        ?
_computing_data_reduction         'SAINT v8.37A (Bruker, 2015)'
_computing_molecular_graphics     'Olex2 (Dolomanov et al., 2009)'
_computing_publication_material   'Olex2 (Dolomanov et al., 2009)'
_computing_structure_refinement   'XL (Sheldrick, 2008)'
_computing_structure_solution     ?
_refine_diff_density_max          0.565
_refine_diff_density_min          -0.425
_refine_diff_density_rms          0.079
_refine_ls_abs_structure_details
;
 Flack x determined using 508 quotients [(I+)-(I-)]/[(I+)+(I-)]
 (Parsons, Flack and Wagner, Acta Cryst. B69 (2013) 249-259).
;
_refine_ls_abs_structure_Flack    -0.001(7)
_refine_ls_extinction_coef        0.0052(8)
_refine_ls_extinction_expression  'Fc^*^=kFc[1+0.001xFc^2^\l^3^/sin(2\q)]^-1/4^'
_refine_ls_extinction_method      'SHELXL-2016/6 (Sheldrick 2016)'
_refine_ls_goodness_of_fit_ref    1.046
_refine_ls_hydrogen_treatment     mixed
_refine_ls_matrix_type            full
_refine_ls_number_parameters      119
_refine_ls_number_reflns          1620
_refine_ls_number_restraints      6
_refine_ls_R_factor_all           0.0563
_refine_ls_R_factor_gt            0.0388
_refine_ls_restrained_S_all       1.044
_refine_ls_shift/su_max           0.000
_refine_ls_shift/su_mean          0.000
_refine_ls_structure_factor_coef  Fsqd
_refine_ls_weighting_details
'w=1/[\s^2^(Fo^2^)+(0.0420P)^2^+0.3545P] where P=(Fo^2^+2Fc^2^)/3'
_refine_ls_weighting_scheme       calc
_refine_ls_wR_factor_gt           0.0858
_refine_ls_wR_factor_ref          0.0951
_refine_special_details
;
 Refined as a 2-component twin.
;
_olex2_refinement_description
;
1. Twinned data refinement
 Scales: 0.524(14)
 0.476(14)
2. Fixed Uiso
 At 1.2 times of:
  All C(H) groups
 At 1.5 times of:
  All N(H) groups, All N(H,H,H) groups
3. Restrained distances
 N11-H11B = N11-H11A
 0.91 with sigma of 0.02
 H11A-H11B
 1.51 with sigma of 0.04
 H11B-N12 = N12-H11A
 1.92 with sigma of 0.04
4.a Aromatic/amide H refined with riding coordinates:
 C3(H3), C6(H6), C9(H9)
4.b Idealised Me refined as rotating group:
 N12(H12A,H12B,H12C)
;
_atom_sites_solution_hydrogens    mixed
_atom_sites_solution_primary      ?
_atom_sites_solution_secondary    ?
loop_
  _atom_site_label
  _atom_site_type_symbol
  _atom_site_fract_x
  _atom_site_fract_y
  _atom_site_fract_z
  _atom_site_U_iso_or_equiv
  _atom_site_adp_type
  _atom_site_occupancy
  _atom_site_site_symmetry_order
  _atom_site_calc_flag
  _atom_site_refinement_flags_posn
  _atom_site_refinement_flags_adp
  _atom_site_refinement_flags_occupancy
  _atom_site_disorder_assembly
  _atom_site_disorder_group
 Co1 Co 0.47612(8) 0.49995(18) 0.5066(2) 0.0164(3) Uani 1 1 d . . . . .
 O2 O 0.3796(5) 0.7276(6) 0.4409(4) 0.0258(10) Uani 1 1 d . . . . .
 C3 C 0.2486(9) 0.7779(10) 0.4695(7) 0.0288(16) Uani 1 1 d . . . . .
 H3 H 0.188811 0.703480 0.513888 0.035 Uiso 1 1 calc R . . . .
 O4 O 0.1910(5) 0.9195(6) 0.4435(5) 0.0270(10) Uani 1 1 d . . . . .
 O5 O 0.4499(6) 0.3617(8) 0.3519(4) 0.0273(12) Uani 1 1 d . . . . .
 C6 C 0.4729(8) 0.4386(8) 0.2570(9) 0.0247(16) Uani 1 1 d . . . . .
 H6 H 0.480664 0.558052 0.258403 0.030 Uiso 1 1 calc R . . . .
 O7 O 0.4858(6) 0.3652(8) 0.1627(5) 0.0283(12) Uani 1 1 d . . . . .
 O8 O 0.2637(5) 0.4157(6) 0.5773(5) 0.0254(10) Uani 1 1 d . . . . .
 C9 C 0.1937(8) 0.2885(9) 0.5361(6) 0.0274(17) Uani 1 1 d . . . . .
 H9 H 0.235041 0.237155 0.470336 0.033 Uiso 1 1 calc R . . . .
 O10 O 0.0734(5) 0.2258(6) 0.5765(5) 0.0279(11) Uani 1 1 d . . . . .
 N11 N 0.5880(12) -0.0089(11) 0.2280(10) 0.054(3) Uani 1 1 d D . . . .
 H11A H 0.605(9) 0.090(7) 0.186(8) 0.082 Uiso 1 1 d DR . . . .
 H11B H 0.584(9) -0.106(8) 0.183(8) 0.09(5) Uiso 1 1 d D . . . .
 N12 N 0.4355(10) 0.0087(8) 0.2737(8) 0.0346(19) Uani 1 1 d D . . . .
 H12A H 0.366927 -0.018724 0.219363 0.052 Uiso 1 1 calc GR . . . .
 H12B H 0.420450 0.117033 0.296128 0.052 Uiso 1 1 calc GR . . . .
 H12C H 0.424223 -0.061387 0.334080 0.052 Uiso 1 1 calc GR . . . .

loop_
  _atom_site_aniso_label
  _atom_site_aniso_U_11
  _atom_site_aniso_U_22
  _atom_site_aniso_U_33
  _atom_site_aniso_U_23
  _atom_site_aniso_U_13
  _atom_site_aniso_U_12
 Co1 0.0173(4) 0.0131(4) 0.0187(4) 0.0002(4) 0.0010(7) 0.0002(4)
 O2 0.023(2) 0.024(2) 0.030(2) 0.004(2) 0.007(2) 0.0069(18)
 C3 0.029(3) 0.027(3) 0.031(4) 0.006(3) 0.007(3) 0.006(3)
 O4 0.022(2) 0.020(2) 0.039(3) 0.003(2) 0.002(2) 0.0042(18)
 O5 0.034(3) 0.027(3) 0.021(3) 0.001(2) 0.002(2) -0.010(2)
 C6 0.027(5) 0.023(3) 0.023(3) 0.005(4) -0.001(3) -0.001(3)
 O7 0.046(3) 0.022(3) 0.017(3) 0.004(2) 0.000(2) -0.004(2)
 O8 0.023(2) 0.020(2) 0.034(3) -0.007(2) 0.008(2) -0.0046(18)
 C9 0.026(3) 0.022(3) 0.034(5) -0.008(3) 0.009(3) -0.009(3)
 O10 0.027(2) 0.022(2) 0.034(3) -0.006(2) 0.006(2) -0.0096(19)
 N11 0.038(5) 0.048(5) 0.077(9) -0.013(5) 0.004(5) -0.005(4)
 N12 0.039(4) 0.031(3) 0.034(5) -0.002(3) 0.003(3) -0.010(3)

_geom_special_details
;
 All esds (except the esd in the dihedral angle between two l.s. planes)
 are estimated using the full covariance matrix.  The cell esds are taken
 into account individually in the estimation of esds in distances, angles
 and torsion angles; correlations between esds in cell parameters are only
 used when they are defined by crystal symmetry.  An approximate (isotropic)
 treatment of cell esds is used for estimating esds involving l.s. planes.
;
loop_
  _geom_bond_atom_site_label_1
  _geom_bond_atom_site_label_2
  _geom_bond_distance
  _geom_bond_site_symmetry_2
  _geom_bond_publ_flag
 Co1 O2 2.098(5) . ?
 Co1 O4 2.094(5) 4_565 ?
 Co1 O5 2.098(6) . ?
 Co1 O7 2.110(6) 2_665 ?
 Co1 O8 2.116(5) . ?
 Co1 O10 2.105(5) 4 ?
 O2 C3 1.245(9) . ?
 C3 H3 0.9300 . ?
 C3 O4 1.244(9) . ?
 O5 C6 1.264(11) . ?
 C6 H6 0.9300 . ?
 C6 O7 1.235(12) . ?
 O8 C9 1.253(8) . ?
 C9 H9 0.9300 . ?
 C9 O10 1.241(8) . ?
 N11 H11A 0.92(3) . ?
 N11 H11B 0.92(3) . ?
 N11 N12 1.428(11) . ?
 N12 H12A 0.8900 . ?
 N12 H12B 0.8900 . ?
 N12 H12C 0.8900 . ?

loop_
  _geom_angle_atom_site_label_1
  _geom_angle_atom_site_label_2
  _geom_angle_atom_site_label_3
  _geom_angle
  _geom_angle_site_symmetry_1
  _geom_angle_site_symmetry_3
  _geom_angle_publ_flag
 O2 Co1 O7 87.3(2) . 2_665 ?
 O2 Co1 O8 93.09(19) . . ?
 O2 Co1 O10 178.6(3) . 4 ?
 O4 Co1 O2 88.6(2) 4_565 . ?
 O4 Co1 O5 87.3(2) 4_565 . ?
 O4 Co1 O7 90.6(2) 4_565 2_665 ?
 O4 Co1 O8 177.5(3) 4_565 . ?
 O4 Co1 O10 91.54(19) 4_565 4 ?
 O5 Co1 O2 94.6(2) . . ?
 O5 Co1 O7 177.1(3) . 2_665 ?
 O5 Co1 O8 94.4(2) . . ?
 O5 Co1 O10 86.8(2) . 4 ?
 O7 Co1 O8 87.7(2) 2_665 . ?
 O10 Co1 O7 91.3(2) 4 2_665 ?
 O10 Co1 O8 86.7(2) 4 . ?
 C3 O2 Co1 122.1(5) . . ?
 O2 C3 H3 117.3 . . ?
 O4 C3 O2 125.4(8) . . ?
 O4 C3 H3 117.3 . . ?
 C3 O4 Co1 122.5(5) . 4_465 ?
 C6 O5 Co1 118.7(5) . . ?
 O5 C6 H6 117.9 . . ?
 O7 C6 O5 124.2(6) . . ?
 O7 C6 H6 117.9 . . ?
 C6 O7 Co1 122.6(5) . 2_664 ?
 C9 O8 Co1 121.2(5) . . ?
 O8 C9 H9 117.5 . . ?
 O10 C9 O8 125.0(7) . . ?
 O10 C9 H9 117.5 . . ?
 C9 O10 Co1 121.2(5) . 4_455 ?
 H11A N11 H11B 113(6) . . ?
 N12 N11 H11A 106(5) . . ?
 N12 N11 H11B 105(5) . . ?
 N11 N12 H12A 109.5 . . ?
 N11 N12 H12B 109.5 . . ?
 N11 N12 H12C 109.5 . . ?
 H12A N12 H12B 109.5 . . ?
 H12A N12 H12C 109.5 . . ?
 H12B N12 H12C 109.5 . . ?

loop_
  _geom_hbond_atom_site_label_D
  _geom_hbond_atom_site_label_H
  _geom_hbond_atom_site_label_A
  _geom_hbond_distance_DH
  _geom_hbond_distance_HA
  _geom_hbond_distance_DA
  _geom_hbond_angle_DHA
  _geom_hbond_site_symmetry_A
 N11 H11A O7 0.92(3) 2.39(6) 3.128(11) 137(6) .
 N11 H11B O10 0.92(3) 2.25(6) 3.043(11) 144(7) 3_544
 N12 H12A O8 0.89 2.06 2.940(10) 171.4 3_544
 N12 H12B O5 0.89 2.02 2.888(9) 164.2 .
 N12 H12C O2 0.89 2.09 2.954(10) 164.5 1_545

loop_
  _geom_torsion_atom_site_label_1
  _geom_torsion_atom_site_label_2
  _geom_torsion_atom_site_label_3
  _geom_torsion_atom_site_label_4
  _geom_torsion
  _geom_torsion_site_symmetry_1
  _geom_torsion_site_symmetry_2
  _geom_torsion_site_symmetry_3
  _geom_torsion_site_symmetry_4
  _geom_torsion_publ_flag
 Co1 O2 C3 O4 172.1(6) . . . . ?
 Co1 O5 C6 O7 167.6(6) . . . . ?
 Co1 O8 C9 O10 175.9(6) . . . . ?
 O2 C3 O4 Co1 -175.1(6) . . . 4_465 ?
 O5 C6 O7 Co1 179.9(5) . . . 2_664 ?
 O8 C9 O10 Co1 -175.3(6) . . . 4_455 ?

_shelx_res_file
;
TITL Co_formate_298K in Pna21 #33
    co_formate_298k.res
    created by SHELXL-2016/6 at 15:33:25 on 21-Jun-2017
REM reset to Pna21 #33
CELL 1.54178 8.6592 7.7641 11.5528 90 90 90
ZERR 4 0.0003 0.0002 0.0004 0 0 0
LATT -1
SYMM -X,-Y,0.5+Z
SYMM 0.5-X,0.5+Y,0.5+Z
SYMM 0.5+X,0.5-Y,+Z
SFAC C H Co N O
UNIT 12 32 4 8 24
EQIV $1 0.5-X,-0.5+Y,-0.5+Z
EQIV $2 +X,-1+Y,+Z
DFIX 0.91 N11 H11b N11 H11a
DANG 1.51 H11a H11b
DANG 1.92 H11b N12 N12 H11a

L.S. 12 0 0
PLAN  20
SIZE 0.058 0.097 0.114
TEMP 24.86
HTAB N11 O10_$1
HTAB N12 O2_$2
HTAB N12 O5
HTAB N12 O8_$1
HTAB N11 O7
BOND
bond $h
conf
list 4
fmap 2 53
acta
TWIN 1 0 0 0 -1 0 0 0 -1 2
REM <olex2.extras>
REM <HklSrc "%.\\Coformate_298K.hkl">
REM </olex2.extras>

WGHT    0.042000    0.354500
EXTI    0.005212
BASF   0.47633
FVAR       0.27860
CO1   3    0.476117    0.499952    0.506618    11.00000    0.01727    0.01308 =
         0.01872    0.00017    0.00097    0.00022
O2    5    0.379631    0.727639    0.440864    11.00000    0.02304    0.02432 =
         0.03014    0.00371    0.00688    0.00692
C3    1    0.248562    0.777903    0.469470    11.00000    0.02935    0.02664 =
         0.03053    0.00580    0.00742    0.00613
AFIX  43
H3    2    0.188811    0.703480    0.513888    11.00000   -1.20000
AFIX   0
O4    5    0.190959    0.919460    0.443532    11.00000    0.02217    0.02009 =
         0.03880    0.00313    0.00169    0.00423
O5    5    0.449897    0.361659    0.351885    11.00000    0.03382    0.02730 =
         0.02080    0.00088    0.00240   -0.00977
C6    1    0.472932    0.438597    0.257049    11.00000    0.02731    0.02345 =
         0.02344    0.00500   -0.00140   -0.00107
AFIX  43
H6    2    0.480664    0.558052    0.258403    11.00000   -1.20000
AFIX   0
O7    5    0.485830    0.365231    0.162662    11.00000    0.04596    0.02226 =
         0.01654    0.00367    0.00037   -0.00446
O8    5    0.263672    0.415708    0.577297    11.00000    0.02307    0.01950 =
         0.03368   -0.00656    0.00780   -0.00460
C9    1    0.193687    0.288497    0.536131    11.00000    0.02649    0.02162 =
         0.03411   -0.00785    0.00891   -0.00898
AFIX  43
H9    2    0.235041    0.237155    0.470336    11.00000   -1.20000
AFIX   0
O10   5    0.073354    0.225765    0.576475    11.00000    0.02736    0.02209 =
         0.03436   -0.00590    0.00612   -0.00964

N11   4    0.587960   -0.008851    0.227981    11.00000    0.03784    0.04841 =
         0.07703   -0.01329    0.00412   -0.00542
H11A  2    0.605366    0.089943    0.185800    11.00000   -1.50000
H11B  2    0.584443   -0.105918    0.182792    11.00000    0.09462
N12   4    0.435531    0.008668    0.273694    11.00000    0.03919    0.03066 =
         0.03391   -0.00207    0.00327   -0.00996
AFIX 137
H12A  2    0.366927   -0.018724    0.219363    11.00000   -1.50000
H12B  2    0.420450    0.117033    0.296128    11.00000   -1.50000
H12C  2    0.424223   -0.061387    0.334080    11.00000   -1.50000
AFIX   0
HKLF 4




REM  Co_formate_298K in Pna21 #33
REM R1 =  0.0388 for    1282 Fo > 4sig(Fo)  and  0.0563 for all    1620 data
REM    119 parameters refined using      6 restraints

END

WGHT      0.0420      0.3543

REM Highest difference peak  0.565,  deepest hole -0.425,  1-sigma level  0.079
Q1    1   0.4640  0.5014  0.5822  11.00000  0.05    0.57
Q2    1   0.4780  0.5226  0.4259  11.00000  0.05    0.55
Q3    1   0.4248  0.6756  0.5173  11.00000  0.05    0.35
Q4    1   0.5476  0.6423  0.4912  11.00000  0.05    0.28
Q5    1   0.0421  0.1450  0.4999  11.00000  0.05    0.27
Q6    1   0.5999  0.0047  0.3054  11.00000  0.05    0.26
Q7    1   0.3813  0.7541  0.5515  11.00000  0.05    0.23
Q8    1   0.5654 -0.1067  0.3032  11.00000  0.05    0.23
Q9    1   0.4544  0.0245  0.1974  11.00000  0.05    0.23
Q10   1   0.3154  0.4739  0.5164  11.00000  0.05    0.23
Q11   1   0.4126  0.3419  0.5294  11.00000  0.05    0.22
Q12   1   0.5454  0.5926  0.2983  11.00000  0.05    0.22
Q13   1   0.4858  0.7835  0.5013  11.00000  0.05    0.22
Q14   1   0.3011  0.6025  0.4295  11.00000  0.05    0.21
Q15   1   0.4825  0.3730  0.4218  11.00000  0.05    0.21
Q16   1   0.6106  0.4032  0.1455  11.00000  0.05    0.21
Q17   1   0.1005  0.2168  0.5053  11.00000  0.05    0.21
Q18   1   0.4460  0.3854  0.0872  11.00000  0.05    0.21
Q19   1   0.1312  0.0570  0.6199  11.00000  0.05    0.21
Q20   1   0.6613 -0.0942  0.2516  11.00000  0.05    0.20
;
_shelx_res_checksum               77058
_shelx_hkl_file
;
   0   1   0   -0.41    0.95
   0   1   0    0.07    0.64
   0  -1   0    0.24    0.48
   0   1   0    0.48    0.50
   0   2   0  427.52   26.58
   0   2   0  396.49   26.72
   0  -2   0  410.85   26.52
   0   3   0   -0.04    2.42
   0   3   0    0.48    2.12
   0  -3   0    2.42    2.07
   0  -3   0    3.04    3.04
   0   3   0    1.05    2.28
   0   4   0  394.40   30.16
   0   4   0  461.03   30.39
   0  -4   0  481.70   31.32
   0   5   0    1.50    3.03
   0   5   0    0.39    2.99
   0   5   0    6.27    4.60
   0   5   0    0.96    3.65
   0   5   0    2.45    2.47
   0  -5   0   -0.34    5.42
   0   6   0   69.27   12.00
   0   6   0   38.62    7.90
   0   6   0   41.34    6.67
   0  -6   0   61.01   10.06
   0   6   0   49.08    6.13
   0  -7   0   13.85    9.98
   0   7   0   -1.84    2.92
   0  -7   0   -1.40    4.19
   0   7   0    1.68    2.96
   0   7   0    2.25    2.66
   0   7   0    0.24    2.19
   0   7   0    5.15   10.36
   0   8   0  127.97    9.77
   0  -8   0  125.39   12.12
   0   8   0  142.65   11.09
   0   8   0  128.49   10.06
   0   9   0   -0.88    1.08
   0   9   0   -2.20    1.99
  -1   0   0   -0.07    0.30
   1   0   0   -0.36    0.26
   1   0   0   -0.23    0.58
  -1   0   0    0.09    0.25
  -1   1   0  722.30   46.56
  -1   1   0  728.29   46.60
   1   1   0  765.24   46.34
   1  -1   0  698.84   46.83
   1  -1   0  719.14   46.54
  -1  -1   0  735.37   46.43
   1   1   0  742.97   46.80
   1   1   0  771.52   46.75
   1  -2   0  196.24   14.53
   1   2   0  219.05   14.03
  -1   2   0  177.11   14.27
  -1  -2   0  188.92   13.37
   1  -2   0  209.81   13.72
  -1   2   0  206.78   13.76
   1   2   0  203.63   14.09
   1   2   0  214.42   13.45
  -1   2   0  217.64   13.84
  -1  -3   0    9.67    2.35
  -1   3   0    9.93    2.60
  -1   3   0   13.93    2.99
   1   3   0   16.84    2.70
   1  -3   0   21.37    4.44
  -1  -3   0   11.38    3.79
   1   3   0    9.07    2.54
  -1   3   0   12.34    3.27
   1  -3   0   15.94    2.64
  -1   4   0   34.08    6.28
  -1  -4   0   55.75    9.34
   1  -4   0   53.23    8.41
  -1   4   0   35.68    7.05
  -1   4   0   44.56    6.75
   1   4   0   45.47    6.32
   1  -4   0   44.29    8.01
   1   4   0   53.92    6.45
  -1   5   0   82.22    9.90
   1   5   0   88.49   10.04
  -1   5   0   77.30    7.87
  -1   5   0   55.33   11.55
  -1   5   0   83.84    8.55
  -1   5   0   81.48    7.51
  -1  -5   0   81.06   13.49
   1  -5   0   99.36   11.78
   1   5   0   81.42    7.26
   1   5   0   79.58   13.27
   1   5   0   86.40    8.00
   1   5   0   83.18    8.07
   1   5   0   77.45    7.20
   1   6   0    2.20    6.78
  -1   6   0   -3.39    2.72
   1   6   0    6.37    6.58
  -1   6   0   -2.72    4.06
   1   6   0   -1.27    2.13
   1  -6   0    1.55    6.55
  -1   6   0    1.89    2.66
   1   6   0    2.27    2.96
  -1   6   0    1.19    6.49
  -1  -6   0   -7.50    8.44
   1   7   0   57.07    6.80
   1   7   0   60.28    6.16
   1   7   0   60.66    6.37
  -1   7   0   52.31    6.30
   1   7   0   88.55   16.95
  -1   7   0   55.46    7.39
  -1  -7   0   63.59   13.98
   1  -7   0   62.93    7.12
  -1   7   0   54.06    6.52
   1  -7   0   34.11   16.30
  -1   7   0   87.08   16.99
   1   7   0   59.50    6.30
   1   8   0    8.99    2.35
   1   8   0   10.59    2.75
  -1   8   0    8.60    2.53
   1   8   0   13.19    2.67
   1  -8   0   14.22    3.74
  -1   9   0   46.08    3.81
   1   9   0   43.61    3.75
   1   9   0   52.63    4.58
   1   9   0   35.48    4.79
  -2   0   0  865.53   57.07
  -2   0   0  835.62   57.35
  -2   0   0  917.55   57.08
   2   0   0 1000.00   57.55
  -2   1   0   43.53    3.93
   2   1   0   51.96    3.41
   2   1   0   56.87    4.37
   2  -1   0   42.20    3.73
  -2   1   0   50.28    3.93
  -2  -1   0   48.46    3.57
   2  -1   0   42.10    4.05
   2   1   0   52.81    4.36
   2   2   0  602.35   37.86
   2  -2   0  596.81   37.53
   2  -2   0  615.53   37.98
  -2   2   0  529.09   38.20
  -2  -2   0  520.96   37.05
  -2   2   0  574.27   37.49
   2   2   0  580.04   36.98
  -2   2   0  644.16   37.89
  -2  -3   0  287.65   24.39
   2  -3   0  384.23   23.85
   2  -3   0  350.72   23.05
   2   3   0  364.18   23.40
  -2  -3   0  311.52   22.41
  -2   3   0  373.99   23.62
   2   3   0  338.04   22.35
  -2   3   0  352.61   22.95
   2   3   0  359.74   23.38
  -2   3   0  283.86   23.58
  -2   4   0  220.24   18.68
   2   4   0  211.69   15.84
   2   4   0  200.67   15.97
   2  -4   0  186.52   17.95
   2  -4   0  212.30   16.78
  -2   4   0  221.91   15.89
  -2   5   0    5.78    4.77
  -2   5   0   17.40    3.68
  -2   5   0   18.74    4.35
   2   5   0   24.01    4.03
  -2   5   0   17.30    3.38
   2   5   0   11.56    3.41
   2   5   0   19.47    3.68
   2   5   0   15.33    5.06
  -2   5   0   12.26    5.85
   2   5   0   16.23    3.82
   2   5   0   11.61    2.47
   2  -5   0   18.84    5.83
  -2  -5   0    9.97    6.85
  -2   6   0  318.98   22.89
   2   6   0  362.81   23.13
  -2   6   0  319.35   26.78
   2   6   0  321.13   26.51
   2   6   0  331.80   22.57
   2  -6   0  356.24   28.00
   2  -6   0  332.08   23.14
   2   6   0  333.95   26.27
   2   6   0  316.06   23.17
  -2  -6   0  337.93   29.89
   2   6   0  354.55   22.73
  -2   6   0  342.07   23.08
  -2   6   0  348.28   23.52
   2   7   0    2.66    2.44
  -2   7   0    1.74    2.55
   2   7   0   -3.17    2.33
   2  -7   0   14.03   11.73
   2   7   0   -0.80    2.87
   2   7   0    0.82    2.16
  -2  -7   0    3.97   13.38
   2  -7   0    0.81    2.84
  -2   7   0    0.40    2.80
   2   7   0   -9.38   10.56
  -2   7   0   14.83   13.66
   2  -8   0  158.71   11.46
   2   8   0  148.46   10.92
  -2   8   0  141.67   10.83
  -2   8   0  141.75   10.85
   2   8   0  157.24   10.87
   2   8   0  155.22   10.88
   2  -9   0    2.75    1.41
   2  -9   0   -2.53    3.36
   2   9   0    2.20    1.16
  -2   9   0    1.18    1.00
   2   9   0   -1.59    1.73
   2   9   0   -0.33    2.42
  -3   0   0    0.27    1.18
   3   0   0    0.68    1.44
  -3   0   0    1.33    1.40
  -3   0   0   -0.69    1.11
   3  -1   0  403.26   28.39
  -3  -1   0  424.96   28.17
  -3   1   0  424.14   28.44
   3  -1   0  449.34   28.89
   3   1   0  472.81   29.00
  -3   1   0  453.59   28.78
  -3  -1   0  449.34   28.13
   3  -2   0   30.75    4.47
   3   2   0   33.29    4.55
   3  -2   0   33.36    4.79
  -3  -2   0   26.06    4.89
   3   2   0   37.27    2.99
  -3   2   0   33.42    4.11
  -3   2   0   45.97    5.80
  -3  -2   0   26.16    3.76
   3   2   0   33.71    4.29
   3   3   0   91.00    8.63
  -3  -3   0   84.55   11.50
  -3   3   0   99.98    9.86
   3   3   0  108.50    9.07
  -3   3   0  101.97    8.50
   3  -3   0   89.76    9.06
  -3   3   0  109.44   11.88
   3   4   0   -0.31    3.21
   3   4   0   -2.18    3.19
   3   4   0   -0.04    2.23
   3   4   0   -0.55    3.17
   3   4   0   -1.19    1.83
   3  -4   0   -7.67    4.08
  -3  -4   0   -8.44    6.16
  -3   4   0   -1.28    3.44
  -3   4   0   -3.53    2.49
   3   5   0  176.43   12.94
   3   5   0  154.72   11.73
   3  -5   0  161.03   12.48
   3   5   0  161.37   12.44
   3   5   0  170.50   11.96
  -3   5   0  143.58   12.26
   3   5   0  160.58   15.61
   3  -5   0  170.05   16.31
   3   5   0  173.80   15.07
  -3   5   0  162.65   12.45
  -3   5   0  184.91   15.45
   3   5   0  175.28   12.11
  -3  -5   0  161.06   20.03
   3   6   0   49.28    6.48
   3  -6   0   59.17    6.77
   3   6   0   57.99    6.19
  -3  -6   0   64.59   16.39
   3   6   0   68.64   15.50
  -3   6   0   53.54   11.00
  -3   6   0   66.83    6.77
   3   6   0   59.87    6.07
   3   6   0   50.77    7.13
  -3   6   0   64.29    6.40
   3   6   0   61.77    5.72
   3  -6   0   61.00   10.57
  -3   7   0  118.06    9.99
  -3  -7   0  143.23   21.36
  -3   7   0  117.21    9.84
   3   7   0  130.76    9.71
   3  -7   0  131.07   10.28
   3   7   0  130.42    9.64
   3   7   0  128.90   10.02
   3  -8   0   27.79    3.50
   3   8   0   31.64    3.94
  -3   8   0   32.62    4.13
   3   8   0   27.92    4.03
   3  -8   0   37.21    4.76
   3   8   0   30.46    3.75
  -3   9   0   25.97    2.58
   3   9   0   24.91    3.07
   3   9   0   23.35    2.30
   3  -9   0   21.27    4.19
   3   9   0   28.58    2.73
  -3  -9   0   25.64    3.19
  -4   0   0  453.53   32.35
  -4   0   0  510.37   32.47
   4   0   0  540.86   33.10
  -4   0   0  493.48   32.76
  -4  -1   0    2.31    2.39
  -4   1   0    6.83    6.80
  -4   1   0   -0.17    3.03
  -4  -1   0   -0.95    2.51
   4  -1   0    3.79    2.26
  -4  -2   0  249.72   18.46
   4   2   0  314.61   19.83
  -4  -2   0  256.69   19.81
  -4   2   0  291.67   19.24
   4   3   0    5.15    2.80
  -4   3   0    5.37    4.24
  -4  -3   0   -3.06    5.27
   4   3   0    4.27    3.40
  -4   3   0    6.77    3.27
   4   4   0   19.25    4.05
  -4   4   0   19.42    5.04
   4   4   0   22.01    5.06
  -4  -4   0   22.30    8.12
   4   4   0   22.68    3.80
   4   4   0   26.60    3.83
   4   4   0   22.15    3.70
   4  -4   0   23.36    4.08
  -4   4   0   17.95    3.50
   4  -4   0   13.04    4.74
   4   5   0   25.56    4.45
   4  -5   0   23.90    5.12
   4   5   0   24.19    3.79
  -4   5   0   16.11    3.06
  -4  -5   0   26.04   11.49
  -4   5   0   21.75    4.07
   4   5   0   19.87    4.21
   4   5   0   22.24    5.96
   4   5   0   22.09    3.77
  -4   5   0   38.12    9.33
   4  -5   0   16.54    3.69
   4   6   0   45.00    5.09
   4   6   0   40.26    5.91
  -4  -6   0   50.44   15.03
  -4   6   0   38.72    5.41
  -4   6   0   49.23    6.56
   4  -6   0   49.60    6.00
   4   6   0   49.15    4.99
   4   6   0   53.62    5.33
   4   6   0   47.95    9.94
   4  -7   0   11.16    2.91
   4   7   0    5.55    2.37
  -4   7   0    9.65    2.43
   4   7   0    6.67    2.04
   4   7   0    4.78    2.18
  -4   8   0   28.39    3.58
   4   8   0   29.75    3.20
   4   8   0   29.27    3.53
   4  -8   0   29.85    3.90
   4   8   0   27.91    3.35
   4   9   0    4.35    1.28
   4   9   0    3.74    1.00
   4  -9   0    4.46    1.89
  -4   9   0    4.35    1.16
  -5   0   0   -0.40    2.35
   5   0   0   -0.96    2.30
  -5   1   0  493.30   33.92
  -5  -1   0  510.88   33.86
   5   1   0  530.35   34.47
   5   2   0   71.81    7.62
   5   2   0   67.17    5.51
   5  -2   0   65.41    5.99
   5  -2   0   57.47    9.51
   5   2   0   55.17    5.79
   5   2   0   72.60    8.18
  -5   2   0   66.38    7.25
   5   2   0   69.30    5.93
   5   3   0  209.15   14.96
   5   3   0  209.33   14.45
   5  -3   0  228.55   15.71
   5  -3   0  189.49   16.70
   5  -3   0  191.04   15.46
  -5   3   0  199.29   14.76
   5   3   0  217.69   14.37
   5   3   0  217.76   15.90
  -5   3   0  224.15   16.28
   5  -3   0  210.59   16.58
   5   3   0  215.69   14.57
   5   3   0  223.44   16.75
  -5   3   0  215.35   18.51
  -5   4   0   -0.80    5.85
   5  -4   0    1.78    3.16
   5   4   0   -0.30    4.65
  -5   4   0    1.28    7.26
   5   4   0    0.96    2.43
   5  -4   0    5.70    3.59
  -5   4   0   -5.12    3.00
   5   4   0    0.27    1.87
   5  -4   0    2.92    4.13
   5   5   0   11.96    2.59
   5   5   0    7.16    3.03
   5  -5   0   13.66    4.97
   5   5   0   11.94    2.48
   5   5   0   -3.33    6.32
  -5   5   0    9.15    3.65
   5   5   0    9.20    2.09
   5  -5   0    8.80    3.20
   5   6   0   -1.78    2.30
   5  -6   0   -5.23    4.20
   5   6   0    0.90    1.86
   5   6   0  -15.30   11.58
   5  -6   0    2.67    2.56
   5   6   0   -1.94    1.86
  -5   6   0   -0.65    2.39
   5   6   0   -0.07    1.92
   5   7   0   74.47    5.93
   5  -7   0   73.59    6.61
   5   7   0   70.58    6.13
   5   7   0   74.96    6.41
  -5   7   0   64.23    6.22
   5   7   0   72.68    5.84
   5   8   0   -1.02    1.44
   5   8   0    4.17    1.63
   5   8   0   -0.30    1.06
   5  -8   0    4.14    1.84
  -5   8   0   -0.15    1.48
   6   0   0    7.95    2.39
   6   0   0    7.37    1.91
  -6   0   0    5.54    3.30
   6   0   0    2.34    3.84
   6   0   0    4.73    2.43
   6   0   0    7.08    1.98
   6   0   0    7.08    3.58
   6  -1   0   39.75    4.46
   6   1   0   42.94    5.71
   6   1   0   50.12    8.78
   6  -1   0   55.00    8.33
   6   1   0   36.59    4.34
   6  -1   0   42.52    5.68
   6  -1   0   35.98    5.44
   6   1   0   44.66    7.07
   6   1   0   42.08    4.23
  -6   1   0   45.90    7.22
  -6  -1   0   49.44    6.79
   6   1   0   44.25    4.85
  -6   2   0   90.03    9.44
   6   2   0   68.55    6.06
   6  -2   0   68.19    7.44
   6  -2   0   75.14    6.39
   6   2   0   75.86    9.08
   6   2   0   68.32    6.00
   6   2   0   77.99    6.53
   6  -2   0   69.37    7.04
   6   2   0   76.93    7.50
   6  -2   0   79.53    9.25
  -6   2   0   71.15    6.81
  -6  -2   0   78.62    9.24
   6   3   0   35.41    4.51
  -6  -3   0   27.13    5.93
   6  -3   0   37.33    7.33
   6   3   0   42.74    8.39
   6   3   0   34.61    4.05
  -6   3   0   34.40    7.28
   6   3   0   29.55    5.45
   6  -3   0   41.01    6.04
   6   3   0   33.03    4.24
  -6   3   0   30.56    8.33
  -6   3   0   38.93    5.45
  -6   4   0    6.84    4.54
   6   4   0    6.52    2.08
   6   4   0    1.76    2.39
   6   4   0    7.72    6.06
   6  -4   0    0.68    3.71
   6   4   0    6.92    2.13
   6  -4   0   -0.14    3.36
   6  -4   0    2.14    3.16
   6   4   0    6.96    2.28
   6   5   0   -6.35    7.62
   6  -5   0   -3.39    2.67
   6   5   0   -3.32    2.13
   6   5   0   -1.42    1.69
   6   5   0   -1.05    1.94
   6  -5   0    0.57    3.15
  -6   5   0   -0.02    2.21
   6   5   0    1.47    1.72
   6  -6   0   32.55    5.16
   6  -6   0   39.57    7.07
  -6   6   0   29.22    4.38
   6   6   0   41.46    3.88
   6   6   0   35.53    4.41
   6   6   0   29.88    3.95
   6   6   0   35.06    4.43
  -6   7   0    1.07    1.67
   6   7   0    1.90    1.40
   6  -7   0   -0.75    1.86
   6   7   0    2.32    2.20
   6   7   0   -0.03    1.29
   6  -8   0    5.18    1.45
   6   8   0    3.52    1.03
   6   8   0    2.39    0.82
   7   0   0    0.16    2.03
  -7   0   0   -2.46    4.83
   7   0   0    0.33    1.63
   7   0   0   -0.47    3.09
   7   0   0   -1.47    2.56
   7   1   0   49.97    5.48
   7   1   0   47.36    8.60
   7  -1   0   43.31    4.82
   7  -1   0   49.96    5.43
   7   1   0   49.55    4.69
   7   1   0   44.65   10.10
   7  -1   0   41.21    7.40
  -7  -1   0   41.48    7.22
   7   1   0   45.85    6.05
  -7   1   0   43.50    7.76
   7  -1   0   46.74    5.97
   7   1   0   46.57    4.47
   7  -2   0   18.22    4.45
  -7   2   0   31.14    8.17
   7  -2   0   20.29    3.35
   7   2   0   17.03    3.18
   7   2   0   25.18    4.01
   7   2   0   21.81    9.36
   7   2   0   22.02    2.92
   7  -2   0   11.64    3.39
   7  -2   0   21.56    3.47
   7   2   0   13.68    3.30
  -7   2   0   21.37    3.11
   7   3   0   50.62    4.74
   7  -3   0   36.26    6.82
  -7   3   0   43.83    7.53
   7   3   0   59.71   10.94
   7   3   0   55.35    6.50
   7  -3   0   34.97    6.06
   7  -3   0   43.80    6.47
   7   3   0   49.11    5.08
   7   3   0   41.67    4.50
   7  -3   0   43.47    6.90
   7   4   0    2.01    1.85
   7   4   0   -3.54    7.37
  -7  -4   0   19.01    9.16
   7  -4   0    2.90    3.23
   7   4   0    0.06    1.62
   7  -4   0    5.68    3.01
   7   4   0   -2.31    1.77
   7   4   0   10.14    3.51
   7  -4   0   -1.37    2.60
   7   5   0   49.46    4.82
   7  -5   0   46.94    6.67
   7   5   0   55.21    5.10
   7   5   0   52.59    5.08
   7  -5   0   55.97    5.71
  -7   5   0   51.76    5.60
   7  -6   0    1.44    2.00
   7   6   0   -0.19    1.91
   7   6   0    0.13    1.31
   7  -6   0    3.84    3.08
   7   6   0   -1.12    1.22
  -7   6   0   -0.53    1.61
  -7   7   0   20.50    2.58
   7   7   0   25.69    2.31
   7  -7   0   22.85    3.12
   7   7   0   24.76    2.47
   8   0   0    4.94    2.74
  -8   0   0    7.46   10.33
   8   0   0    3.47    1.82
   8   0   0    1.72    1.98
   8   0   0    3.63    3.22
   8  -1   0    2.91    1.87
  -8  -1   0   -7.86    9.20
   8   1   0   12.44    4.11
   8  -1   0   10.38    3.61
   8   1   0    8.52    2.99
   8   1   0    4.81    2.37
   8  -1   0    3.28    1.99
   8   1   0    3.48    2.00
   8  -1   0    6.36    2.84
  -8  -2   0   -3.00    9.95
   8  -2   0    1.17    2.90
   8  -2   0    1.03    2.03
   8   2   0    2.33    3.04
   8   2   0   -5.40    6.79
   8   2   0    1.67    1.78
   8   2   0    4.40    2.04
  -8   2   0    4.96    2.84
  -8   2   0    7.55   14.50
   8  -2   0    5.64    2.85
   8   2   0    3.02    1.65
   8  -3   0    3.24    2.46
   8   3   0    4.00    1.86
   8   3   0    2.09    1.71
   8   3   0    1.90    1.49
   8  -3   0    1.57    4.06
   8  -3   0    1.37    5.00
   8   3   0    2.56    3.11
   8   4   0    5.41    1.88
   8   4   0    6.63    1.71
   8   4   0   12.07    3.70
   8  -4   0    4.75    2.53
   8  -5   0    0.49    2.18
   8   5   0   -1.37    1.70
  -8   5   0   -1.08    1.67
   8   5   0   -0.35    1.22
   8   5   0    0.46    1.24
   8  -5   0   -1.33    3.03
   8  -6   0   -1.56    2.46
   8  -6   0    5.64    2.61
   8   6   0    2.71    1.31
   8   6   0    1.71    1.02
   8   6   0    1.62    1.82
  -8   6   0    0.76    1.80
   9   0   0   -2.65    2.82
   9   0   0   -1.32    2.42
   9   0   0    2.15    1.93
   9   0   0    1.61    1.60
   9   1   0    5.09    1.75
   9  -1   0    5.62    2.86
   9   1   0    7.22    2.27
   9   1   0    5.42    2.73
   9  -1   0   10.07    3.13
   9  -1   0    4.74    1.67
   9  -1   0    5.77    2.27
   9  -2   0    1.76    2.27
   9   2   0    1.43    1.54
   9  -2   0    4.73    2.58
   9  -2   0   -0.18    2.15
   9   2   0    2.84    1.85
   9   2   0    4.73    2.48
   9   3   0    1.57    1.61
   9   3   0    2.60    2.51
   9  -3   0    7.77    2.54
   9  -3   0    4.27    2.76
   9  -3   0    2.37    2.51
   9   3   0    5.30    1.49
   9   4   0    1.38    1.30
  -9   4   0   -1.55    1.47
   9   4   0    0.12    1.32
   9  -5   0    1.20    1.73
   9   5   0    0.40    1.54
  10   1   0    0.91    1.28
  10  -1   0    4.00    1.90
  10  -1   0    5.09    2.30
  10   1   0   -1.87    1.90
  10   1   0   -1.81    1.47
  10  -1   0   -2.05    1.72
  10   2   0   -0.37    1.23
  10  -2   0    1.31    2.34
  10  -2   0    0.47    1.89
  10   2   0   -0.27    1.98
  10  -2   0   -0.54    2.37
  10   3   0    2.83    1.30
 -10   3   0    0.26    1.60
  10   3   0   -0.94    1.00
  10  -3   0   -1.43    1.98
  10   3   0   -5.55    3.21
 -10   4   0   -1.70    1.78
  10  -4   0    5.46    2.44
   0   0  -1   -0.18    0.24
   0   0  -1   -0.62    0.68
   0   0   1   -0.13    0.36
   0   0   1    0.33    0.40
   0  -1   1   -0.35    1.09
   0   1   1   -0.21    0.66
   0   1   1    0.45    0.45
   0  -1  -1   -0.12    0.44
   0   1   1    0.36    0.81
   0  -1   1    0.09    0.64
   0   1   1    0.82    0.69
   0   1  -1    0.43    0.81
   0   1  -1    0.44    0.68
   0   1  -1   -0.13    1.17
   0   2   1    0.57    1.56
   0  -2   1    0.33    1.26
   0   2   1    1.59    1.40
   0   2  -1    2.24    1.94
   0   2  -1    0.89    1.53
   0   2  -1   -0.82    1.26
   0  -2  -1    0.51    1.11
   0  -2   1    5.09    2.52
   0   3  -1   62.24    6.25
   0   3   1   64.89    5.98
   0  -3   1   67.64    8.57
   0  -3  -1   66.94    6.11
   0   3  -1   82.31    8.93
   0   3  -1   52.98    6.76
   0  -3   1   68.47    6.24
   0   3   1   62.21    6.21
   0   3   1   72.98    5.93
   0   4   1    4.53    3.40
   0   4   1   -1.80    3.04
   0  -4   1   -3.18    4.17
   0   4  -1   -1.21    3.48
   0   4  -1   -0.76    2.87
   0  -4  -1    0.44    3.27
   0   5  -1   60.71    7.53
   0   5   1   69.99    9.21
   0   5  -1   50.45    8.77
   0   5  -1   62.49    6.59
   0  -5   1   64.77   11.38
   0   5   1   54.41    6.78
   0   5  -1   60.12    8.80
   0   5  -1   63.29    7.71
   0  -5  -1   75.26   11.14
   0   5   1   54.85    9.52
   0   5  -1   71.03   10.03
   0   5   1   59.91    6.74
   0   5   1   60.51    6.83
   0   5   1   62.73    6.35
   0   6  -1    0.54    7.31
   0   6  -1   -1.11    3.63
   0   6  -1    4.62    6.22
   0   6   1   -3.15    6.41
   0   6   1    1.19    3.78
   0   6   1    1.10    2.71
   0  -6   1   -1.14    5.96
   0   6  -1    0.43    3.12
   0  -6  -1   -6.24    7.84
   0   6  -1   -0.66    4.79
   0  -6   1   -3.19    4.50
   0   6  -1    0.78    3.59
   0   6  -1    3.04    3.57
   0   7   1    2.55    2.69
   0  -7  -1   -4.11   11.26
   0   7  -1    1.03    2.50
   0  -7   1    7.51   11.74
   0   7   1    7.23    2.79
   0   7  -1    5.10    2.97
   0   7   1    3.01    2.86
   0  -7   1   -0.97    4.80
   0   7   1    0.38    2.47
   0  -7  -1    4.94    3.97
   0   7  -1    1.87    2.93
   0   7  -1   17.98   11.47
   0   7   1   -0.74    9.93
   0   8   1    1.02    2.35
   0   8  -1    2.75    3.17
   0  -8  -1    1.94    4.69
   0   8   1    2.23    2.26
   0   8  -1    3.78    2.21
   0   8  -1    4.22    2.59
   0   8   1    0.49    2.08
   0   9   1    8.31    1.53
   0   9   1   11.14    2.00
   0  -9   1   12.59    2.49
   0   9  -1    5.68    1.67
   1   0   1   -0.09    0.31
  -1   0  -1    0.26    0.41
   1   0   1    0.45    0.80
  -1   0   1    0.52    0.63
   1   0  -1   -0.69    0.44
   1   0  -1    0.37    0.68
  -1   0   1   -0.04    0.48
  -1   0   1   -0.21    0.45
   1   0   1    0.50    0.54
   1   1   1   21.15    2.10
   1  -1  -1   21.41    2.01
   1   1   1   22.93    2.49
   1   1   1   26.00    2.35
  -1   1  -1   23.24    2.28
  -1   1  -1   18.85    1.99
  -1  -1   1   21.39    2.03
  -1  -1   1   24.05    2.91
  -1  -1  -1   21.59    1.48
   1  -1   1   20.22    2.05
   1   1  -1   16.90    2.59
  -1   1   1   20.73    2.34
   1   1  -1   22.26    2.46
   1   1  -1   21.02    1.96
  -1   1   1   23.23    2.01
  -1   1   1   22.02    2.22
   1  -1   1   22.79    2.70
  -1   2  -1  123.44    9.18
  -1  -2   1  110.46   10.22
   1   2   1  133.72    9.12
  -1  -2   1  124.97    8.87
   1   2   1  125.72    9.27
   1  -2  -1  136.61    9.03
  -1   2  -1  107.99    9.98
  -1   2  -1  135.87    9.36
  -1   2   1  109.36    9.22
   1  -2   1  131.51   10.11
  -1   2   1  125.42    9.10
   1   2  -1  131.18    9.18
  -1   2   1  137.38    9.03
   1  -2   1  130.08    8.98
   1   2  -1  135.61    9.07
  -1   3  -1    4.03    2.94
   1   3   1    2.83    2.23
  -1  -3   1    8.58    4.22
   1   3   1    0.26    1.83
   1   3   1    4.30    2.21
  -1   3  -1    6.48    2.37
   1  -3  -1    4.44    2.50
  -1   3  -1    3.39    2.95
  -1  -3   1    0.61    2.22
  -1  -3  -1    5.32    2.16
   1   3  -1    4.14    2.40
   1  -3   1    1.52    2.23
   1   3  -1    2.93    2.49
  -1   3   1    4.03    2.11
  -1   3   1    9.47    2.65
   1  -3   1    4.87    3.79
   1   3  -1    5.68    2.41
  -1   3   1    5.68    2.71
  -1  -4   1   -1.98    4.37
   1  -4  -1    1.33    3.85
   1   4   1   -0.33    2.83
  -1   4  -1   -0.88    3.25
   1   4   1    0.65    2.88
  -1   4  -1    6.93    5.97
  -1   4  -1    5.88    4.29
  -1   4   1    4.01    3.69
   1   4  -1    3.44    3.00
   1  -4   1   -2.85    4.35
  -1   4   1    0.49    3.04
   1  -4   1    6.42    5.31
  -1  -4  -1    0.34    3.63
   1   4  -1    1.77    3.00
  -1   5  -1    7.03    2.74
   1   5   1   11.12    4.76
  -1   5  -1    0.63    4.81
  -1   5  -1   11.19    4.14
   1   5   1   17.45    3.01
   1   5   1   11.39    3.05
   1  -5  -1   19.53    6.10
   1   5   1   10.29    3.32
  -1   5  -1   18.01    5.28
   1   5   1   14.05    4.81
  -1  -5   1   24.75    7.83
  -1   5  -1    7.10    3.72
   1   5   1    6.51    2.78
   1  -5   1    5.81    4.44
  -1  -5  -1   13.76    6.63
  -1   5   1   16.42    4.17
   1  -5   1   21.18    5.83
  -1   5   1   12.66    4.62
  -1   5   1    9.46    3.06
   1   5  -1    8.66    3.45
   1   5  -1   13.89    3.73
  -1   5   1   12.59    3.40
   1   5  -1   13.15    4.47
  -1   5   1    7.60    2.82
   1   5  -1   14.84    3.29
   1   5  -1   10.03    4.87
   1   5  -1    5.17    2.40
   1   5  -1   13.59    3.89
  -1   6  -1   11.97    3.09
  -1   6  -1   17.59    7.59
   1   6   1   10.74    3.08
  -1   6  -1   16.00    3.76
  -1   6  -1    6.31    7.43
   1   6   1   22.55    5.07
  -1   6  -1   15.40    5.09
   1  -6  -1    9.92    7.41
   1   6   1   23.55    7.08
  -1  -6   1   17.71    9.20
   1   6   1   13.84    2.96
   1   6  -1   34.24    8.25
  -1   6   1   31.74    8.53
   1  -6   1   21.16    4.80
  -1   6   1   16.64    3.52
   1   6  -1   10.88    6.34
  -1  -6  -1   29.40    9.86
   1   6  -1   17.66    4.03
   1   6  -1   12.94    2.70
   1  -6   1   21.79    8.29
  -1   6   1   20.70    4.06
   1   6  -1    9.96    3.44
  -1   6   1   18.22    4.27
  -1   7  -1    5.24    6.20
   1  -7  -1    8.00    3.43
   1   7   1    6.42    2.55
  -1   7  -1   10.22    2.72
   1   7   1    4.49    2.79
  -1  -7   1   33.14   16.55
   1   7   1    0.48    2.83
  -1   7  -1    3.97   16.39
   1  -7  -1   20.58   12.94
   1   7   1    2.98    2.43
   1   7   1   15.55   10.16
  -1   7  -1    4.64    2.99
  -1  -7  -1   14.38   11.93
   1  -7   1    8.78    3.71
   1   7  -1    3.75    2.34
   1   7  -1    6.76    2.82
   1   7  -1   -1.07    2.63
  -1   7   1    2.39    2.73
  -1   7   1    3.31    2.92
  -1   7   1    0.75    2.58
  -1   7   1   16.34   10.73
   1  -7   1   21.38   10.43
   1   7  -1    3.06   11.16
  -1  -7  -1    7.76    5.41
  -1   7   1    0.65    3.39
   1  -8  -1    6.50    3.17
   1   8   1    3.39    2.42
   1   8   1    6.21    2.51
   1   8   1    4.96    2.32
  -1   8  -1    6.23    3.06
  -1   8  -1    5.82    2.32
   1   8  -1    3.46    2.07
   1  -8   1    9.87    3.88
  -1   8   1    6.30    2.30
   1   8  -1    8.46    2.30
   1   8  -1    4.42    2.39
  -1   8   1    1.58    3.49
  -1   8   1    9.71    2.50
   1   9   1    4.58    1.57
   1   9   1    5.49    2.73
   1  -9  -1    4.59    4.75
  -1  -9   1    2.77    1.46
   1   9   1    1.09    1.32
  -1   9  -1    0.65    1.32
  -1   9   1    0.73    1.35
   1   9  -1    1.74    1.31
   1   9  -1    1.68    2.19
   1  -9   1    2.95    1.35
   2   0   1  122.51    7.89
   2   0  -1  135.06    8.51
   2   0   1  129.63    8.61
  -2   0  -1  100.15    8.07
   2   0   1  116.10    7.92
  -2   0   1  118.85    8.24
  -2   0   1  122.61    8.21
   2   1   1  143.51    9.70
   2   1   1  121.24    9.32
   2   1   1  151.45    9.81
  -2  -1   1  136.40    9.61
  -2  -1   1  143.50    9.45
   2  -1  -1  119.89    9.84
  -2   1  -1  127.97    9.73
  -2   1  -1  142.00    9.35
  -2   1   1  156.93    9.54
   2   1  -1  147.68   10.00
  -2  -1  -1  129.35    8.80
  -2   1   1  136.92    9.51
   2   1  -1  138.73    9.23
   2  -1   1  147.68    9.50
  -2  -2   1   79.73    6.13
  -2  -2   1   67.06    7.75
   2   2   1   76.33    5.12
  -2   2  -1   80.65    7.15
   2   2   1   76.84    6.49
   2   2   1   80.97    6.38
  -2   2  -1   70.16    7.77
   2  -2  -1   78.97    6.33
  -2   2  -1   80.84    6.16
  -2   2   1   85.22    6.89
   2   2  -1   74.14    5.81
  -2   2   1   79.93    6.20
   2   2  -1   75.72    6.62
  -2   2   1   86.33    6.52
   2  -2   1   71.28    6.13
   2  -2   1   77.36    6.84
  -2  -2  -1   70.64    5.42
   2   2  -1   72.17    6.42
   2  -3  -1  148.87   10.65
   2   3   1  134.62   10.57
   2  -3  -1  129.73   10.94
  -2   3  -1  136.16   10.19
  -2   3  -1  139.37   11.94
  -2  -3   1  120.85   12.51
   2   3   1  137.89   10.32
   2   3   1  128.67    9.12
  -2  -3   1  115.84   10.05
  -2   3  -1  118.94   11.50
  -2  -3  -1  111.46    9.63
  -2   3   1  146.37   10.35
   2  -3   1  142.74   11.24
   2   3  -1  136.25    9.98
  -2   3   1  111.45   10.71
   2  -3   1  138.35   10.45
   2   3  -1  131.38   10.87
  -2   3   1  156.60   11.08
   2   3  -1  130.50   10.41
  -2   4  -1   21.09    5.10
   2  -4  -1   22.48    4.77
  -2   4  -1   27.36    5.08
  -2  -4   1   27.78    8.87
   2   4   1   25.32    4.91
  -2   4   1   18.11    4.60
  -2  -4  -1   21.16    6.30
   2  -4   1   27.96    5.22
   2   4  -1   23.30    4.47
   2   5   1   10.64    4.75
  -2   5  -1   11.50    5.55
   2   5   1    6.90    2.35
   2   5   1    8.20    2.25
   2  -5  -1    6.56    5.51
   2   5   1   12.06    4.64
  -2  -5   1    1.94    7.12
   2   5   1    6.62    2.79
  -2   5  -1    4.12    4.24
  -2   5  -1   16.11    5.73
   2   5   1   15.50    3.03
   2   5  -1    3.13    4.30
   2  -5   1    6.28    3.45
  -2  -5  -1    1.20    6.73
   2   5  -1    2.20    3.32
   2   5  -1    8.31    4.39
   2   5  -1    7.27    3.17
   2   5  -1    4.49    1.98
  -2   5   1    2.54    4.71
   2   5  -1    8.55    3.03
  -2   5   1    1.80    4.47
  -2   5   1    8.43    2.99
  -2   5   1    2.94    2.57
   2  -5   1    0.46    5.42
   2   5  -1   10.14    2.77
  -2  -6   1   37.47   10.53
  -2   6  -1   29.47    4.97
  -2   6  -1   15.33    8.26
  -2   6  -1   24.12    8.91
   2  -6  -1   22.25    8.35
   2   6   1   25.76    4.63
   2   6   1   31.52    5.62
   2   6   1   24.33    4.38
   2   6   1   27.90    5.35
   2   6   1   31.44    8.40
   2   6  -1   19.31    4.15
  -2   6   1   21.21    3.86
  -2   6   1   30.03    6.04
   2   6  -1   21.94    7.26
   2   6  -1   27.22    4.53
   2  -6   1   15.46    3.58
   2  -6   1   14.67    7.87
   2   6  -1   18.48    3.57
   2   6  -1   22.18    3.59
   2   6  -1   16.99    7.03
  -2   6   1   26.76    3.75
  -2   6   1   17.95    7.67
  -2  -6  -1   28.82    9.63
   2   7   1   12.19    9.97
   2  -7  -1    1.04   12.58
  -2  -7   1    6.45   11.80
   2   7   1   -3.12    2.69
  -2   7  -1    7.19    3.58
   2  -7  -1    3.37    3.17
   2   7   1   -3.06    2.04
   2   7   1    0.99    2.47
   2   7   1    0.37    3.01
  -2   7  -1    1.58    2.35
   2   7  -1   -6.05   11.43
   2  -7   1   -1.84    2.96
   2  -7   1   -7.18   11.84
  -2   7   1   -2.39    2.75
  -2   7   1   -1.89    2.48
   2   7  -1   -1.02    2.27
  -2   7   1   -1.33   11.23
  -2  -7  -1   -5.25   12.34
   2   7  -1   -1.21    2.27
   2   7  -1   -1.74    2.19
   2   7  -1    4.06    2.69
   2   8   1   16.60    3.11
   2   8   1   10.82    2.41
  -2   8  -1   13.27    2.66
   2  -8  -1    9.59    2.89
   2   8  -1   13.31    2.66
  -2   8   1   10.88    2.58
   2   8  -1   20.61    3.58
   2  -8   1   11.31    3.37
   2  -9  -1    0.41    1.36
   2   9   1    1.35    1.32
   2   9   1    0.93    2.16
   2   9   1    0.08    1.71
  -2  -9   1   -1.30    1.75
  -2   9  -1    1.27    1.28
   2  -9  -1   -0.24    2.44
   2   9  -1   -2.29    1.22
  -2   9   1    1.62    1.25
   2   9  -1    0.95    1.71
   2  -9   1   -6.05    3.09
   2   9  -1    0.79    1.83
  -3   0   1    0.04    1.64
   3   0  -1    0.33    1.50
   3   0   1    0.10    1.06
   3   0   1    0.99    1.53
  -3   0   1    1.10    1.30
  -3   0  -1   -0.38    1.86
  -3   0  -1    1.49    1.23
  -3   0  -1    0.90    1.08
   3   1   1  133.71    9.22
  -3   1  -1  116.79    9.47
  -3  -1   1  106.08    8.72
  -3  -1   1  108.68    8.38
  -3   1  -1  129.18    8.58
   3  -1  -1  121.03    8.91
  -3  -1  -1  124.75    8.00
  -3   1   1  129.63    9.13
   3  -1   1  119.71    8.31
   3  -1   1  121.02    8.51
   3   1  -1  122.59    9.08
  -3   1   1  116.40    8.72
   3   1  -1  119.66    8.42
  -3  -2   1  118.99   10.65
  -3   2  -1  132.84   11.27
   3   2   1  137.93   10.33
  -3  -2   1  122.65    9.85
  -3   2  -1  135.31    9.75
   3   2   1  129.68   10.39
  -3   2  -1  141.45   11.79
   3  -2  -1  139.26   10.33
   3  -2   1  131.47    9.96
  -3   2   1  128.22    9.96
   3  -2   1  137.09    9.97
   3   2  -1  133.49    9.40
   3   2  -1  143.95   10.47
  -3   2   1  149.05   10.70
   3  -3  -1   73.31    8.58
   3   3   1   56.60    6.63
   3  -3  -1   58.22    7.50
  -3   3  -1   57.19    8.33
  -3   3  -1   59.64    6.31
  -3  -3   1   55.20   10.08
   3   3   1   51.72    6.50
  -3   3   1   51.66    6.25
   3   3  -1   63.48    6.85
   3  -3   1   58.76    7.08
   3   3  -1   63.68    6.94
  -3   3   1   60.83    7.78
  -3   3   1   57.43    7.89
  -3  -4   1   -1.10    6.06
   3   4   1    0.38    3.17
   3   4   1    2.10    2.96
  -3   4  -1    6.81    3.90
  -3   4  -1    0.20    2.94
   3   4   1    5.44    2.56
   3   4   1    1.56    3.36
  -3   4  -1    1.91    4.59
   3  -4  -1    7.59    4.56
  -3  -4  -1    0.78    6.47
   3   4  -1    2.87    1.95
   3   4  -1    3.99    2.23
   3  -4   1    6.36    5.57
   3   4  -1    3.88    3.31
   3   4  -1    2.69    3.36
   3   4  -1    1.54    2.43
   3   4  -1    0.51    3.50
  -3   4   1    8.98    3.74
   3  -4   1    1.90    3.30
  -3   4   1   -3.23    5.04
  -3   4   1    0.79    2.81
   3   5   1   47.61    6.08
   3  -5  -1   42.45    7.72
  -3   5  -1   55.00    7.99
  -3   5  -1   32.91    8.17
   3   5   1   50.90    6.41
   3   5   1   41.05    4.92
  -3  -5   1   26.27    9.18
   3   5   1   63.32    9.30
   3   5   1   49.91    8.14
   3   5   1   45.15    5.07
   3   5   1   47.69    5.96
  -3   5  -1   35.97    5.48
   3  -5   1   43.65    7.98
  -3   5   1   38.25    5.47
   3   5  -1   43.10    8.76
   3   5  -1   44.87    5.77
   3   5  -1   65.52    9.69
   3   5  -1   51.67    5.50
  -3   5   1   44.87    5.88
   3   5  -1   40.07    4.93
   3  -5   1   45.92    6.50
   3   5  -1   39.74    4.99
  -3  -5  -1   27.20    9.00
  -3   5   1   40.61    8.30
  -3   5   1   46.16    9.11
   3   5  -1   46.69    7.08
  -3   6  -1   11.69    2.89
   3  -6  -1   26.66    9.63
   3   6   1    7.13    2.85
   3   6   1   21.02   11.79
   3  -6  -1   11.88    3.63
   3   6   1    9.97    3.12
   3   6   1   15.58    3.20
   3   6   1   14.72    2.83
  -3  -6   1   27.13   13.40
  -3   6   1   11.07    2.94
   3  -6   1   31.74   10.21
  -3   6   1   10.58    2.89
   3   6  -1   13.56    2.59
   3   6  -1   22.70    8.46
  -3   6   1   22.14   10.44
   3   6  -1    7.90    2.50
   3   6  -1    7.10    2.39
   3  -6   1   14.41    3.62
   3   6  -1   12.97    3.29
   3   7   1   23.88    4.83
   3   7   1   29.11    4.38
  -3  -7   1   58.84   17.97
  -3   7  -1   37.72    4.73
   3   7   1   20.58   12.69
   3   7   1   28.93    5.41
   3  -7  -1   27.24    5.04
   3   7   1   25.75    4.07
  -3   7   1   40.91   15.81
  -3   7   1   24.50    4.71
   3   7  -1   31.62    4.30
   3  -7   1   12.27   22.37
  -3  -7  -1   30.80   16.66
  -3   7   1   34.77    4.95
   3  -7   1   35.08    5.23
   3   7  -1   33.00    5.04
   3   7  -1   27.26    5.03
   3   7  -1   33.25    4.45
   3   8   1    7.63    1.91
   3   8   1    9.02    2.66
  -3   8  -1    6.15    2.23
   3  -8  -1    3.66    2.33
   3   8   1    6.11    1.89
   3   8  -1    3.56    1.79
   3  -8   1    3.15    2.86
   3   8  -1    6.12    2.27
  -3   8   1   10.27    2.40
   3   8  -1    9.00    2.17
   3  -8   1    4.88    1.77
  -3   8   1    6.59    2.08
   3   9   1    3.17    1.38
   3   9   1    4.04    1.06
   3  -9  -1    3.34    2.28
   3  -9   1    9.84    2.53
   3   9  -1    6.44    1.85
  -3   9   1    4.98    1.10
  -4   0  -1  430.37   26.06
  -4   0  -1  360.99   25.77
  -4   0  -1  343.61   26.62
   4   0  -1  446.62   26.71
  -4   0   1  430.52   26.51
  -4   0   1  380.88   26.38
  -4   0   1  393.16   26.20
   4   0   1  392.53   26.71
   4  -1  -1   34.10    4.57
  -4   1  -1   33.90    4.21
  -4  -1   1   37.44    4.26
   4   1   1   31.60    4.53
  -4   1  -1   27.10    5.68
  -4  -1   1   37.69    5.26
  -4  -1  -1   31.64    3.84
   4   1  -1   35.32    4.79
  -4   1   1   33.88    4.35
  -4   1   1   36.24    6.57
  -4   1   1   42.19    5.71
  -4  -1  -1   26.06    5.15
   4   2   1  159.97   12.23
  -4  -2   1  138.76   11.98
  -4   2  -1  162.14   11.55
  -4   2   1  158.95   11.76
  -4   2   1  147.48   13.35
   4   2  -1  161.68   12.40
  -4   3  -1   -0.79    4.08
  -4   3  -1    5.50    3.23
   4   3   1    4.62    3.24
  -4  -3   1    1.59    5.03
   4  -3   1    6.29    4.35
   4   3  -1    1.67    3.07
  -4  -3  -1    3.55    6.31
  -4   3   1    0.49    4.44
   4   3  -1    0.98    1.94
  -4   3   1   -1.95    2.90
   4   3  -1    2.08    1.97
   4   3  -1   -1.73    1.96
   4   4   1   45.18    8.01
   4   4   1   34.58    6.17
   4   4   1   41.24    5.25
  -4  -4   1   34.23    9.15
   4   4   1   47.29    4.70
   4  -4  -1   51.86    7.87
   4  -4  -1   35.95    5.80
  -4   4  -1   31.44    6.34
  -4   4  -1   48.89   10.55
   4   4   1   42.15    4.48
   4   4   1   48.58    5.89
   4  -4   1   37.22    7.05
   4   4  -1   41.52    5.55
  -4   4   1   31.84    6.96
   4   4  -1   45.69    7.59
   4   4  -1   45.68    4.59
   4   4  -1   41.96    4.70
   4  -4   1   47.93    6.53
  -4  -4  -1   30.98    9.20
   4  -4   1   56.90    9.87
   4  -4   1   36.00    6.06
   4   4  -1   38.62    4.44
  -4   4   1   53.15    7.79
  -4   4   1   40.11    5.17
   4   5   1    6.01    2.01
   4   5   1    3.74    1.98
  -4   5  -1    3.19    2.45
  -4  -5   1  -12.75   17.29
   4   5   1   11.82    5.96
   4  -5  -1    4.51    4.12
   4   5   1   -2.49    6.61
   4  -5  -1    6.19    2.89
   4   5   1    8.22    2.61
   4   5   1    9.00    3.14
  -4   5  -1    3.55    7.88
   4   5   1    8.01    4.03
   4  -5   1    8.76    4.71
   4   5  -1    7.66    2.18
   4   5  -1    3.19    2.81
  -4   5   1    3.20    6.06
   4   5  -1    4.52    5.27
  -4  -5  -1   -0.01   10.70
  -4   5   1    3.76    2.75
   4  -5   1    6.51    2.98
   4   5  -1    7.92    2.37
   4   5  -1    3.31    1.98
  -4  -6   1   23.98   16.51
   4   6   1   29.33    5.91
  -4   6  -1   31.39    4.68
   4   6   1   33.35    4.55
   4  -6  -1   30.99    5.39
   4   6   1   33.33    5.19
   4   6   1   30.95    5.26
   4   6   1   38.31    4.29
  -4  -6  -1   40.32   15.99
   4   6  -1   30.26    5.10
  -4   6   1   33.02   11.51
   4   6  -1   39.62    4.63
   4   6  -1   35.55    4.70
   4  -6   1   34.50    5.19
  -4   6   1   28.43    5.00
   4   6  -1   41.65    9.44
   4   6  -1   33.80    4.37
  -4   6   1   30.60    5.11
   4  -7  -1    4.10    2.17
   4   7   1    0.96    2.36
  -4   7  -1    0.88    2.06
   4   7   1    1.23    2.16
   4   7   1    2.65    1.73
  -4   7   1    1.60    2.20
  -4   7   1    2.06    2.44
   4   7  -1    2.78    1.73
   4  -7   1    5.14    3.00
   4   7  -1    1.24    2.33
   4   7  -1    5.49    2.00
   4   7  -1    6.77    2.74
   4   8   1    7.94    2.04
  -4   8  -1   10.42    2.19
   4  -8  -1    6.96    2.28
   4   8   1   14.46    2.55
  -4  -8   1   15.20    3.08
   4   8   1    7.45    1.95
   4   8  -1   14.65    2.26
   4   8  -1    8.88    1.84
   4   8  -1   12.80    2.22
  -4   8   1   11.34    2.09
   4  -9  -1    4.75    1.64
   4   9   1    3.10    1.16
  -4   9  -1   -0.15    1.06
   4   9   1    3.31    1.26
   4   9  -1    1.52    0.67
  -4   9   1   -2.17    1.74
   5   0  -1   -1.60    2.48
   5   0   1   -2.92    2.69
  -5   0   1    1.67    2.39
  -5   0  -1    0.80    2.34
   5   1   1  171.53   13.62
   5  -1  -1  169.95   13.44
  -5  -1   1  178.62   13.10
  -5   1  -1  171.03   13.00
  -5  -1  -1  171.13   13.15
  -5   1   1  185.68   13.35
   5   1  -1  188.94   13.88
   5  -2  -1   20.17    4.33
   5   2   1   23.68    4.05
   5   2   1   17.44    2.75
  -5   2  -1   23.68    4.41
   5   2   1   26.57    4.61
   5  -2  -1   25.86    3.37
   5   2   1   24.07    3.44
  -5  -2   1   29.86    4.81
  -5   2   1   25.53    4.22
   5  -2   1   25.09    4.58
   5   2  -1   22.29    3.41
   5  -2   1   24.57    3.86
   5   2  -1   22.20    3.60
   5  -2   1   20.74    3.15
   5   2  -1   18.59    3.44
   5  -2   1   20.52    6.75
   5   2  -1   17.84    4.04
   5   2  -1   24.45    4.20
   5   3   1  123.33   11.72
  -5   3  -1  115.81   13.82
   5   3   1  117.83   10.32
   5   3   1  132.73    9.25
   5  -3  -1  120.92   10.82
   5   3   1  139.87   11.43
  -5   3  -1  129.95   11.78
   5   3   1  135.72    9.71
   5  -3  -1  121.41   11.42
   5   3   1  130.25    9.41
   5  -3   1  127.32   10.60
   5   3  -1  126.44    9.41
   5   3  -1  139.72   11.96
  -5   3   1  123.99   13.83
  -5   3   1  119.05    9.56
   5   3  -1  130.26   11.21
   5   3  -1  133.95    9.50
   5  -3   1  142.07   10.85
   5  -3   1  103.26   12.13
   5  -3   1  137.68   12.61
   5   3  -1  142.19    9.34
  -5   3   1  132.00   11.38
   5   3  -1  121.57    9.91
   5   4   1    3.47    2.07
   5  -4  -1   11.72    4.64
   5   4   1    6.80    5.17
   5   4   1    2.49    2.86
  -5   4  -1   -2.07    7.34
   5  -4  -1    5.67    4.91
   5  -4   1    8.13    4.04
   5   4  -1    5.73    4.89
  -5   4   1   -0.33    5.48
  -5   4   1    2.54    2.31
   5   4  -1    8.37    2.20
   5   4  -1    6.58    2.43
   5   4  -1    5.19    2.82
   5  -4   1    3.81    3.54
  -5   5  -1    5.09    2.46
   5   5   1    5.54    7.32
   5   5   1   11.53    2.36
   5   5   1   13.79    2.96
  -5   5  -1   -9.50   19.89
   5   5   1    9.23    2.33
   5   5   1    9.79    2.37
   5  -5  -1    8.19    2.93
   5  -5  -1    5.56    3.66
  -5   5   1   10.76    2.78
   5   5  -1   10.90    2.81
   5   5  -1    7.55    2.28
  -5   5   1   10.13    8.86
   5   5  -1    6.38    2.12
   5   5  -1   12.96    2.41
  -5   5   1   10.46    2.69
   5  -5   1    8.23    3.76
   5   5  -1   22.22    6.99
   5  -5   1    9.74    3.34
   5  -6  -1   -3.32    2.36
   5   6   1   -0.07    1.70
   5   6   1    0.19    2.38
   5  -6  -1   -2.25    3.97
  -5   6  -1   -1.97    2.00
   5   6   1   -2.33    1.95
   5   6   1    0.75    2.34
   5   6  -1    3.19    1.97
   5   6  -1    1.30    1.92
   5   6  -1   -0.86    2.28
  -5   6   1   -3.53    2.14
   5   6  -1    0.57    1.76
   5   6  -1  -15.42   10.29
  -5   6   1    0.63    2.49
   5  -6   1   -0.73    2.54
  -5   7  -1   47.69    4.89
   5   7   1   47.62    4.93
   5  -7  -1   44.57    5.19
   5   7   1   44.29    4.59
   5   7   1   46.11    4.49
  -5   7   1   49.94    6.20
   5   7  -1   49.70    4.66
   5   7  -1   49.30    4.76
   5   7  -1   51.58    5.14
   5   7  -1   51.04    4.70
  -5   7   1   44.37    4.78
   5  -7   1   51.02    5.63
   5   8   1   -1.48    1.75
   5   8   1    1.49    1.31
   5  -8  -1   -0.48    1.74
   5   8   1    0.91    1.34
  -5   8  -1    2.56    1.50
   5   8  -1    1.98    1.22
  -5   8   1    1.07    1.47
   5   8  -1    2.99    1.48
   5  -8   1    1.83    1.66
   6   0  -1   53.27    4.75
   6   0  -1   51.50    4.61
   6   0   1   46.04    4.72
   6   0   1   42.53    6.10
  -6   0  -1   49.53    6.97
   6   0  -1   51.13    6.62
  -6   0   1   52.69    6.86
   6   0  -1   49.57    5.65
   6   0   1   39.05    7.89
   6   0  -1   46.91    7.42
   6   0  -1   59.43    5.63
   6   0   1   50.76    5.35
   6   1   1   17.50    3.11
   6   1   1   18.90    3.05
  -6   1  -1   21.92    4.95
  -6  -1   1   19.99    4.16
   6  -1  -1   25.18    4.71
   6   1   1    9.93    4.29
   6   1   1    9.40    3.99
   6  -1  -1   22.08    4.57
   6   1   1   19.91    3.46
   6  -1  -1   14.81    2.77
   6  -1  -1   13.47    3.03
   6   1   1   11.88    3.14
   6   1  -1   15.47    4.78
   6  -1   1   13.90    2.43
   6   1  -1   19.88    3.79
   6   1  -1   20.41    3.68
   6   1  -1   14.43    3.14
   6   1  -1    9.41    3.99
   6  -1   1    8.00    3.86
   6  -1   1   17.42    3.28
  -6  -1  -1   16.09    4.15
  -6   1   1   18.05    4.35
   6  -1   1   20.94    3.29
   6   1  -1   20.87    3.12
   6   2   1  184.79   16.85
   6  -2  -1  207.15   15.13
  -6   2  -1  231.94   17.05
   6   2   1  194.51   15.58
   6   2   1  208.41   14.27
   6  -2  -1  212.84   14.59
   6   2   1  213.07   14.65
   6  -2  -1  202.56   15.05
  -6  -2   1  208.39   16.44
   6  -2  -1  214.69   16.50
   6   2   1  201.53   14.29
   6  -2   1  196.22   15.89
   6  -2   1  224.31   16.86
  -6  -2  -1  211.39   16.38
  -6   2   1  211.52   16.53
   6   2  -1  221.07   17.03
   6  -2   1  208.77   14.57
   6  -2   1  215.38   15.10
   6   2  -1  225.49   14.62
   6   2  -1  216.02   14.25
   6  -2   1  203.51   15.47
   6   2  -1  212.21   15.28
   6   2  -1  214.50   14.37
   6  -3  -1   18.71    4.25
   6  -3  -1   26.53    4.45
   6   3   1   22.41    3.60
  -6   3  -1   12.52    6.98
   6  -3  -1   19.24    4.58
   6   3   1   21.48    5.29
   6   3   1   16.99    3.15
  -6  -3   1   13.27    5.29
   6  -3  -1   16.14    3.90
   6   3   1   28.49    3.77
   6  -3   1   25.31    5.70
  -6   3   1   13.54    8.07
   6  -3   1   25.62    5.06
   6   3  -1   26.79    3.52
   6   3  -1   26.64    5.60
   6  -3   1   23.26    4.84
   6   3  -1   20.06    3.74
   6  -3   1   27.08    4.57
  -6   3   1   21.47    5.96
   6   3  -1   20.52    3.51
   6   3  -1   20.93    3.83
   6   4   1   25.32    3.76
   6   4   1   24.01    3.55
   6  -4  -1   23.62    3.83
   6   4   1   35.74    7.67
   6   4   1   30.59    3.98
   6  -4  -1   32.22    6.45
   6   4   1   21.63    4.30
  -6   4  -1   28.08   10.97
  -6  -4   1   27.63    7.67
   6  -4   1   19.97    3.93
   6   4  -1   24.69    4.57
   6   4  -1   22.50    6.33
  -6   4   1   20.35    8.93
   6  -4   1   21.98    4.09
   6   4  -1   28.39    3.71
   6   4  -1   28.13    3.93
   6  -4   1   34.00    5.70
  -6   4   1   23.64    3.50
   6   4  -1   30.39    4.20
   6   4  -1   28.56    4.30
   6   5   1    0.28    2.15
   6   5   1   -0.21    1.66
   6   5   1   -3.41    9.15
   6  -5  -1    0.01    2.63
   6   5   1    1.59    1.90
  -6   5  -1   -1.29    2.19
   6  -5  -1    0.34    3.04
  -6  -5   1    5.93    9.34
   6   5  -1    1.73    1.79
  -6   5   1   -4.50    2.59
   6  -5   1    4.95    3.19
   6   5  -1    0.49    1.96
   6   5  -1   -7.76    7.70
  -6   5   1    1.89    2.23
   6  -5   1    0.54    2.92
   6   5  -1   -2.07    2.21
   6   5  -1    0.17    1.62
  -6   6  -1   82.07    7.26
   6   6   1   84.54    6.66
   6   6   1   80.78    7.01
   6   6   1   81.29    6.65
   6  -6  -1   94.20    8.83
   6   6   1   87.15    6.97
   6  -6  -1   87.89    7.43
   6   6  -1   84.26    7.19
   6  -6   1   87.16    9.27
   6   6  -1   78.93    6.63
  -6   6   1   85.97    8.30
  -6   6   1   73.03    7.10
   6  -6   1   89.12    7.56
   6   6  -1   91.72    6.76
   6   6  -1   95.10    6.95
   6  -7  -1    2.16    2.02
   6   7   1    1.13    1.31
   6   7   1    1.14    1.55
  -6   7  -1    1.18    1.83
   6   7   1    0.70    1.99
   6   7  -1    3.52    1.44
   6  -7   1    1.90    1.99
   6   7  -1    1.50    1.39
   6   7  -1    1.69    1.64
  -6   7   1   -0.15    1.58
   6   8   1   19.55    2.06
  -6   8  -1   13.68    2.28
   6   8   1   15.62    1.92
   6   8  -1   22.24    2.16
   6  -8   1   19.18    3.00
  -6   8   1   14.14    1.94
   7   0   1   -1.02    1.49
   7   0  -1   -1.52    1.71
   7   0  -1   -1.46    2.10
   7   0   1   -2.31    2.30
   7   0  -1    1.89    3.65
   7   0   1   -3.73    3.22
  -7   0  -1   -2.80    5.51
  -7   0   1    1.23    5.11
   7   0  -1    0.73    2.15
   7   0  -1    5.48    5.21
   7   0   1   -0.51    2.89
  -7   1  -1   49.37    9.16
   7   1   1   57.59    5.07
   7   1   1   48.49    4.96
   7   1   1   56.23    5.84
  -7  -1   1   71.07    9.95
   7  -1  -1   54.63    6.34
   7  -1  -1   53.16    5.35
   7  -1  -1   58.88    6.14
   7   1   1   55.82    8.32
   7   1   1   52.16    6.98
   7   1   1   52.34    8.37
   7  -1  -1   67.89    8.10
   7   1  -1   58.95    5.17
   7   1  -1   48.55    9.89
   7   1  -1   61.70    5.87
   7  -1   1   61.82    5.35
   7   1  -1   64.09    6.37
   7  -1   1   49.72    8.13
   7  -1   1   55.75    6.73
   7  -1   1   46.71    5.86
  -7  -1  -1   59.27   10.43
   7   1  -1   53.07    5.01
  -7   1   1   60.31    8.80
   7  -2  -1    3.18    2.72
   7  -2  -1    7.98    2.20
   7  -2  -1    9.79    3.63
   7  -2  -1    4.19    2.44
  -7  -2   1   -0.13    7.45
   7   2   1   11.77    2.59
  -7   2  -1  -11.23   13.96
   7   2   1    7.50    1.92
   7   2   1   -2.86    6.88
   7   2   1    6.71    1.84
   7   2   1    3.95    3.11
   7   2  -1    6.84    1.91
   7   2  -1    8.67    2.28
   7   2  -1    7.70    2.82
  -7   2   1    9.45    7.65
   7  -2   1    6.74    2.07
   7  -2   1    7.54    2.83
  -7  -2  -1    8.41    9.46
   7   2  -1    7.65    1.93
   7  -2   1    8.49    3.67
   7   2  -1   10.65    5.63
   7  -2   1    4.05    2.40
  -7   2   1    6.35    2.08
   7   3   1   57.77    5.76
   7   3   1   54.22    7.03
   7  -3  -1   50.14    7.34
   7   3   1   51.60    8.56
   7   3   1   55.36    5.27
  -7  -3   1   49.69    9.20
   7  -3  -1   48.29    7.44
   7   3   1   56.76    5.13
  -7   3  -1   55.88   19.53
   7  -3  -1   48.11    7.32
   7   3  -1   66.56    5.62
   7   3  -1   62.63    6.72
  -7   3   1   56.47   11.73
   7   3  -1   62.76    5.27
   7  -3   1   67.81    7.34
  -7  -3  -1   71.86   13.80
   7  -3   1   46.76    6.47
   7  -3   1   54.42    7.13
   7  -3   1   51.03    6.66
   7   3  -1   54.80    5.16
  -7   3   1   55.70    5.54
   7  -4  -1    5.74    3.02
   7   4   1    1.85    7.59
   7  -4  -1    5.61    3.05
   7   4   1    4.93    2.26
   7   4   1    4.21    1.76
   7  -4   1    2.78    2.80
   7  -4   1    0.09    2.96
   7  -4   1    4.95    2.81
   7   4  -1    4.65    2.07
  -7   4   1   -0.59    2.55
   7   4  -1    0.85    1.83
   7   4  -1   -3.72    7.69
  -7  -4  -1    6.96    8.95
   7   4  -1    3.76    1.77
   7   5   1  109.61    8.24
   7   5   1   99.50    8.49
   7   5   1  104.35    8.10
   7   5   1  113.07    8.59
   7  -5  -1  118.02    9.55
  -7   5  -1  104.23    8.73
   7  -5  -1  116.09    8.95
   7   5  -1  116.29    8.23
  -7   5   1  105.70    8.64
   7  -5   1  124.33    8.82
   7   5  -1  118.01    8.59
   7   5  -1  109.45    8.23
   7  -5   1  110.69    9.86
   7  -6  -1   -1.18    2.10
   7   6   1   -2.07    2.15
  -7   6  -1    4.70    1.81
   7   6   1    1.63    1.37
   7  -6  -1   -2.67    2.49
   7   6  -1   -0.13    1.51
  -7   6   1   -0.31    1.63
   7   6  -1   -0.16    1.17
   7  -6   1   -3.36    2.79
   7  -7  -1   40.95    3.78
   7   7   1   39.92    3.11
   7   7   1   36.40    3.10
  -7   7  -1   34.97    3.42
   7   7  -1   34.47    3.03
   7  -7   1   40.13    3.68
   7   7  -1   39.92    3.07
  -7   7   1   30.01    3.31
   8   0  -1   86.70    6.98
   8   0   1   83.00    8.32
   8   0   1   85.47    6.93
   8   0  -1   87.97    9.34
  -8   0   1   95.95   16.70
   8   0   1   84.49    7.57
   8   0   1   81.11    9.40
   8   0  -1   90.38    7.79
   8   0  -1   90.92    7.58
  -8  -1   1   23.02    8.27
   8  -1  -1   13.08    2.89
   8  -1  -1   14.24    3.28
   8   1   1   19.80    3.31
   8   1   1   23.61    3.54
   8   1   1   21.30    3.83
   8  -1  -1   15.86    3.39
   8   1   1   25.93    4.50
   8  -1   1   22.02    3.56
   8   1  -1   27.78    4.85
   8  -1   1   18.33    3.34
   8   1  -1   22.78    3.45
   8  -1   1   11.88    3.60
   8   1  -1   20.41    4.30
  -8   1   1   22.04    9.77
   8  -1   1   19.42    3.64
   8   1  -1   13.95    4.86
   8   2   1   63.29    7.00
  -8  -2   1   71.79   12.11
   8  -2  -1   49.57    5.83
  -8   2  -1   47.37   14.21
   8   2   1   53.14    4.79
   8  -2  -1   58.86    7.03
   8   2   1   52.23    5.00
   8  -2  -1   65.01    6.63
   8   2   1   52.61    5.72
   8   2  -1   56.16    5.11
   8  -2   1   56.93    7.17
   8   2  -1   49.90    6.14
  -8  -2  -1   64.97   13.45
   8  -2   1   47.69    6.52
  -8   2   1   47.75   17.24
  -8   2   1   59.61    5.27
   8  -2   1   52.51    5.85
   8   2  -1   57.71    4.89
   8   2  -1   59.28    5.70
   8   3   1   34.97    4.08
   8   3   1   41.36    4.01
   8   3   1   34.92    4.74
   8  -3  -1   44.14    9.01
   8  -3  -1   37.17    5.62
   8   3   1   36.13    6.35
   8  -3  -1   34.90    6.27
   8   3  -1   46.51    6.05
   8  -3   1   31.03    5.37
  -8   3   1   45.12    5.26
   8   3  -1   38.50    4.05
   8   3  -1   41.79    4.11
   8  -3   1   40.87    5.79
   8   3  -1   39.19    4.43
   8   4   1   63.72    5.35
   8   4   1   59.53    5.35
   8  -4  -1   67.35    7.01
   8   4   1   69.59    6.11
  -8   4  -1   68.29    6.10
   8   4  -1   70.64    5.98
   8   4  -1   73.01    5.53
   8   4  -1   64.84    5.42
   8   4  -1   79.44    6.94
   8  -4   1   74.58    6.43
   8  -4   1   57.35    7.68
   8  -4   1   64.12    7.09
   8   5   1    1.37    1.21
   8   5   1   -2.82    1.80
   8  -5  -1   -1.42    1.93
  -8   5  -1   -1.63    1.60
   8   5   1    1.24    1.30
   8   5  -1   -1.87    1.22
   8   5  -1    2.13    1.34
   8  -5   1    0.71    2.38
  -8   5   1   -0.43    1.64
   8  -5   1    0.68    2.32
   8   5  -1    2.50    1.57
   8   6   1   29.85    2.87
   8   6   1   38.31    3.09
  -8   6  -1   37.42    3.59
  -8   6   1   30.01    3.32
   8  -6   1   40.35    3.88
   8   6  -1   36.30    3.67
   8  -6   1   49.24    7.85
   8   6  -1   38.52    3.21
   8   6  -1   39.48    3.65
   9   0  -1   -0.47    1.97
   9   0  -1    3.02    3.06
   9   0   1   -2.66    1.99
   9   0   1   -1.49    2.94
   9   0   1    0.14    2.35
   9   0  -1    1.85    1.44
   9   0   1    0.31    1.49
   9  -1  -1   79.74    7.14
   9   1   1   87.56    7.23
   9  -1  -1   76.77    6.68
   9  -1  -1   87.93    7.75
   9   1   1   84.63    6.66
   9   1   1   96.59    7.90
   9  -1  -1  100.37    8.31
   9   1   1  101.17    9.38
   9   1  -1   90.91    7.63
   9   1  -1   85.23    6.77
   9  -1   1   96.30    8.44
   9  -1   1   90.68    7.99
   9  -1   1   87.07    7.28
   9   1  -1   85.37    7.24
  -9   1   1   92.39    6.82
   9   2   1    0.45    2.57
   9   2   1    1.04    1.38
   9  -2  -1    0.55    2.41
   9  -2  -1   -1.46    2.47
   9  -2  -1   -1.96    2.18
   9   2   1    0.42    1.64
   9  -2   1    1.84    2.52
   9  -2   1    3.06    2.07
   9   2  -1    1.40    2.39
   9   2  -1    4.08    1.50
   9  -2   1   -1.86    2.66
  -9   2   1    0.44    2.44
   9   2  -1    1.96    1.67
   9  -3  -1   48.80    6.12
   9  -3  -1   51.96    5.64
   9   3   1   54.51    4.83
   9   3   1   56.40    5.83
   9   3   1   53.10    4.38
   9  -3   1   61.05    5.93
   9   3  -1   55.54    5.63
   9  -3   1   49.82    5.77
   9   3  -1   50.82    4.91
   9  -3   1   40.71    5.15
   9   3  -1   53.13    4.36
   9  -4  -1   -1.11    1.93
   9   4   1    0.49    1.09
   9   4   1   -1.59    1.64
  -9   4  -1    4.41    1.63
  -9   4   1    1.80    1.53
   9  -4   1    3.24    2.01
   9   4  -1    2.57    1.24
   9   4  -1    1.79    1.60
   9  -5  -1   17.55    3.35
  -9   5  -1   16.25    2.37
   9   5   1   17.06    1.96
   9  -5   1   17.00    3.46
   9   5  -1   17.75    2.00
  -9   5   1   20.55    2.64
   9   5  -1   20.48    2.59
  10   0   1   87.53    7.65
  10   0  -1   84.77    6.69
  10   0   1   82.49    6.83
  10   0   1   75.02    6.40
 -10   0   1   95.19    6.83
  10   0  -1   82.77    6.47
  10  -1  -1   -1.27    2.56
  10   1   1   -0.69    1.39
  10   1   1    0.21    1.13
 -10  -1   1   -1.32    1.53
  10  -1  -1    0.16    2.44
  10   1   1   -2.78    1.84
  10  -1  -1   -0.11    1.88
  10   1  -1    0.01    1.79
  10  -1   1   -1.16    1.91
  10  -1   1    1.83    1.67
  10   1  -1    1.68    1.17
  10   1  -1    1.01    1.70
  10  -1   1    3.35    2.15
  10   2   1   24.91    2.37
  10  -2  -1   21.91    3.61
  10   2   1   18.19    2.75
  10  -2  -1   24.60    3.79
  10  -2   1   18.54    3.88
  10   2  -1   16.94    2.81
  10   2  -1   22.41    3.72
  10  -2   1   22.73    3.19
  10   2  -1   17.86    2.22
  10  -3  -1    5.45    1.83
  10   3   1    5.78    1.31
 -10   3  -1    6.97    1.73
  10   3   1    6.40    1.29
  10   3  -1    5.90    1.18
  10  -3   1    5.26    1.84
  10   3  -1    8.59    2.60
  10   3  -1    5.64    1.36
 -10   3   1    3.79    1.44
   0   0   2  734.64   44.17
   0   0   2  613.84   44.00
   0   0  -2  743.89   44.05
   0   1   2    0.38    0.74
   0  -1   2   -0.06    0.88
   0   1  -2   -0.80    0.91
   0   1   2   -0.16    0.53
   0   1  -2    0.23    1.65
   0   1   2    0.44    0.51
   0  -1   2    0.34    0.99
   0   1   2   -0.45    0.97
   0   2   2   44.02    3.41
   0   2   2   42.19    3.70
   0   2   2   41.56    3.90
   0   2  -2   33.77    4.76
   0   2  -2   44.66    4.34
   0  -2   2   46.70    4.96
   0   2  -2   42.96    4.26
   0  -2   2   40.11    4.15
   0  -2  -2   38.88    3.59
   0   2   2   43.00    4.33
   0   3   2    0.13    2.09
   0   3   2   -0.02    2.26
   0  -3   2   -2.65    3.54
   0   3  -2    6.15    3.01
   0   3  -2    0.01    2.43
   0   3  -2    2.86    3.04
   0  -3  -2   -0.07    2.39
   0   3   2    1.96    2.15
   0   4   2  415.25   26.33
   0   4  -2  409.68   26.94
   0   4  -2  339.05   27.55
   0   5  -2    1.24    2.65
   0   5   2   -2.58    2.50
   0   5   2   -4.11    2.78
   0   5  -2   -3.86    3.23
   0   5   2    0.63    2.58
   0   5   2   -3.96    3.49
   0  -5  -2   -4.53    5.30
   0  -5   2    4.50    6.22
   0   5  -2   16.66    6.16
   0   5  -2   -4.71    4.66
   0   5   2   -1.12    2.88
   0   5  -2    4.80    4.79
   0   5  -2    4.64    4.56
   0   5   2   -4.83    4.30
   0   6   2   19.43    3.84
   0  -6  -2   12.60    8.00
   0   6   2   22.75    3.78
   0   6  -2    4.69    7.49
   0   6  -2   24.56    4.19
   0   6   2   31.40    5.31
   0  -6   2   24.24    5.77
   0   6   2    8.70    6.49
   0   6  -2   20.94    3.66
   0   6  -2   20.70    4.08
   0   6  -2   15.65    7.31
   0  -6   2   19.30    7.12
   0   6   2   15.79    3.67
   0   6  -2   21.12    3.52
   0   7  -2   -1.73    2.53
   0  -7   2   -5.60   11.29
   0   7   2    2.13    2.59
   0   7   2    1.01    2.31
   0  -7  -2   -5.40   11.14
   0   7  -2    0.54    2.37
   0   7   2    1.66    2.67
   0   7   2   -1.84    2.65
   0   7  -2   -4.56    2.91
   0  -7   2   -4.85    6.07
   0   7  -2   -2.56    3.06
   0   7   2   -2.22    9.58
   0   8  -2   48.91    5.14
   0   8   2   49.15    5.04
   0   8  -2   34.17    5.87
   0  -8  -2   35.94    6.95
   0   8   2   52.85    5.70
   0   8  -2   43.96    5.89
   0   8   2   51.22    5.61
   0   8   2   50.24    4.89
   0   9   2    1.77    1.55
   0   9  -2    0.13    1.28
   0  -9   2   -1.41    1.29
   0   9   2    0.57    1.18
   0   9   2   -1.00    2.25
   1   0  -2    0.82    1.02
  -1   0   2    0.07    0.71
   1   0   2    0.93    0.82
   1   0  -2    1.81    0.73
   1   0   2    1.07    0.62
  -1   0   2    1.54    0.82
  -1   0   2   -0.47    0.78
  -1   0  -2    0.21    0.59
   1  -1  -2  785.70   45.68
  -1  -1   2  650.28   46.37
   1   1   2  767.79   45.55
  -1   1  -2  664.84   46.90
  -1   1  -2  675.40   46.12
   1   1   2  668.53   46.11
   1   1   2  814.16   46.13
   1   1   2  752.90   46.02
  -1  -1   2  684.18   46.07
  -1   1  -2  643.48   45.55
   1   1   2  728.29   45.55
   1   1  -2  742.36   46.03
   1  -1   2  794.58   46.30
  -1   1   2  811.14   46.00
  -1   1   2  776.22   46.02
  -1   1   2  676.55   46.15
   1  -1   2  664.13   46.01
  -1   1   2  740.40   45.93
   1   2   2   50.68    5.25
   1   2   2   54.28    4.71
  -1  -2   2   57.04    6.11
  -1  -2   2   55.02    5.00
  -1   2  -2   44.08    6.35
   1   2   2   67.89    4.85
  -1   2  -2   59.16    5.06
  -1   2  -2   58.21    5.57
   1   2   2   60.31    4.22
  -1   2   2   50.20    5.11
   1  -2   2   57.88    5.88
   1   2  -2   61.88    5.02
   1  -2   2   60.52    5.11
   1   2  -2   62.31    5.27
  -1   2   2   57.15    4.97
   1   3   2  631.77   39.00
  -1  -3   2  564.74   38.51
  -1  -3   2  540.49   39.86
   1   3   2  682.75   38.44
  -1   3  -2  499.30   39.55
   1  -3  -2  611.00   38.64
  -1   3  -2  620.57   38.51
  -1   3  -2  619.31   39.30
   1   3   2  621.31   37.92
   1  -3   2  629.68   39.76
  -1  -3  -2  506.18   37.89
  -1   3   2  607.60   38.78
   1   3  -2  611.04   38.65
   1   3  -2  641.29   38.71
   1  -3   2  500.59   39.21
   1   3  -2  547.77   39.26
  -1  -4   2    8.72    5.70
   1   4   2   16.97    3.81
   1   4   2   20.22    4.47
  -1   4  -2   15.26    4.35
  -1   4  -2   24.34    7.12
  -1   4  -2   12.96    5.10
   1   4  -2   15.30    4.57
   1   4  -2   17.95    3.99
   1  -4   2    9.43    7.51
   1  -4   2   18.35    5.21
  -1   4   2   15.65    3.97
  -1  -5   2  431.62   30.85
   1  -5  -2  360.39   28.92
   1   5   2  366.44   26.65
  -1   5  -2  379.06   28.34
   1   5   2  392.44   26.02
  -1   5  -2  406.06   26.41
   1   5   2  382.72   26.23
   1   5   2  408.35   28.75
   1   5   2  401.69   25.94
   1   5   2  400.93   26.05
   1  -5   2  368.06   27.16
  -1   5   2  360.89   25.95
   1   5  -2  351.92   26.17
   1  -5   2  416.58   29.82
  -1   5   2  395.07   25.88
  -1   5   2  400.68   28.46
   1   5  -2  438.44   26.76
  -1   5   2  380.05   26.27
   1   5  -2  395.03   26.23
   1   5  -2  406.59   26.12
  -1   5   2  405.93   26.42
   1   5  -2  419.10   28.39
   1   5  -2  391.98   28.71
  -1  -5  -2  353.22   29.54
  -1   6  -2   -2.79    8.29
   1  -6  -2   -0.95    8.36
   1   6   2    2.86    8.49
  -1   6  -2    4.43    2.93
  -1  -6   2    2.59    8.08
   1   6   2    2.53    2.48
   1   6   2    6.74    2.87
  -1   6  -2   -2.27    7.37
  -1   6  -2    4.32    4.36
   1   6   2    5.02    2.83
   1   6   2    5.76    2.45
   1  -6   2    1.91    7.96
  -1   6   2  -10.02    7.07
   1   6  -2   12.06    6.44
  -1   6   2    2.28    2.10
   1   6  -2    4.05    2.47
   1   6  -2    6.67    3.10
  -1   6   2    8.24    3.02
   1   6  -2    3.35    3.84
   1   6  -2   12.23    7.30
  -1  -6  -2   13.58    8.65
  -1   6   2    3.14    2.99
   1  -7  -2   97.45   15.36
   1   7   2  116.25    8.91
  -1   7  -2  107.67    9.01
   1   7   2   98.08    8.93
  -1   7  -2   89.50    8.74
   1   7   2  110.15   18.09
   1   7   2  106.69    8.61
   1   7   2  102.45    8.88
   1   7  -2  104.41    8.82
   1   7  -2  102.34    8.74
   1   7  -2   85.76   16.06
   1   7  -2  110.77    8.73
  -1  -7  -2  127.36   19.00
   1   7  -2  108.77   23.00
  -1   7   2   98.76    9.08
   1   7  -2  108.72    8.54
  -1   7   2  105.79    8.71
  -1   7   2  110.85    9.02
  -1   7   2  105.89   18.74
  -1   7   2  102.84    8.73
   1  -7   2  103.76   10.04
   1   8   2    6.59    2.26
   1   8   2    4.27    2.19
   1   8   2    8.39    2.75
   1  -8  -2    7.66    3.18
   1   8   2    4.44    2.33
  -1   8  -2    7.04    2.32
   1   8  -2    4.65    2.10
  -1   8   2    4.57    2.19
  -1   8   2    5.59    2.08
   1   8  -2    4.49    2.45
   1   8  -2    8.12    2.66
   1  -8   2    3.35    4.33
  -1  -9   2   91.82    6.69
   1   9   2   93.71    6.58
  -1   9  -2   91.48    6.53
   1  -9  -2   84.95    7.62
   1   9   2  105.05    7.24
   1  -9   2   90.51    6.63
  -1   9   2   80.92    7.10
   1   9  -2   91.84    6.49
  -2   0   2  107.55    6.89
  -2   0  -2   85.02    6.96
  -2   0   2  112.52    7.44
   2   0  -2  103.41    7.08
  -2   0   2  101.06    7.25
   2   0   2  104.47    7.12
   2   0  -2  116.51    7.55
   2   0   2   92.83    6.79
   2   1   2  124.33    8.79
   2  -1  -2  145.84    8.92
   2   1   2  138.80    9.26
  -2   1  -2  124.96    8.58
  -2  -1   2  118.85    9.07
  -2   1  -2  116.23    9.35
   2   1   2  124.24    9.02
   2  -1   2  121.97    8.83
  -2   1   2  124.95    9.16
   2   1  -2  133.49    8.86
   2   1  -2  118.31    9.42
  -2   1   2  141.91    9.03
  -2   1   2  130.80    9.09
   2  -1   2  131.53    9.02
  -2   1   2  124.44    8.73
  -2   2  -2  156.57   11.81
  -2   2  -2  142.69   10.50
  -2  -2   2  143.08   11.51
  -2   2  -2  148.92   12.41
   2   2   2  141.40   10.66
  -2  -2   2  143.74   11.07
   2   2   2  150.80   11.20
  -2   2   2  156.61   11.12
   2  -2   2  155.47   10.88
  -2   2   2  157.27   11.08
   2  -2   2  147.21   11.21
  -2   2   2  175.68   11.47
  -2   2   2  151.20   10.96
   2   2  -2  157.17   10.77
   2   2  -2  150.82   11.52
   2   3   2   52.69    6.49
  -2  -3   2   55.93    8.30
   2   3   2   62.33    6.05
   2   3   2   54.04    4.14
  -2   3  -2   65.57    9.50
  -2   3  -2   56.25    6.16
  -2  -3   2   55.72    7.30
   2   3   2   55.16    3.98
  -2   3  -2   53.07    8.51
   2  -3   2   53.70    6.81
   2   3  -2   53.45    6.38
   2   3  -2   58.56   10.44
  -2   3   2   55.31    5.76
   2  -3   2   51.09    7.04
  -2   3   2   69.91    7.58
   2   3  -2   49.85    6.57
   2   4   2  266.95   18.26
   2   4   2  242.66   18.60
  -2   4  -2  239.64   18.41
  -2  -4   2  215.16   20.64
   2   4  -2  259.89   18.62
   2  -4   2  269.66   19.30
   2   4  -2  230.38   18.65
  -2   4   2  242.15   18.16
   2  -5  -2   -0.29    6.13
  -2   5  -2   11.76    3.30
  -2  -5   2    2.39    6.70
  -2   5  -2    8.96    6.95
  -2   5  -2   20.71    7.01
   2   5   2    8.94    3.03
   2   5   2   10.31    2.52
   2   5   2   14.07    2.86
   2   5   2    5.05    2.31
   2   5   2    5.09    4.88
  -2   5   2    9.07    3.53
  -2   5   2    8.02    2.53
   2   5  -2   13.72    2.88
   2  -5   2    2.72    5.73
   2   5  -2    1.61    4.21
   2   5  -2   10.46    2.87
  -2   5   2    3.26    3.01
   2  -5   2   13.73    3.62
  -2  -5  -2   -7.12    7.51
   2   5  -2   16.71    6.17
   2   5  -2    4.11    2.17
  -2   5   2   15.07    5.89
   2   5  -2    8.85    3.20
  -2   5   2    3.85    3.69
  -2  -6   2  191.16   22.06
   2   6   2  147.84   17.53
   2   6   2  172.75   12.48
  -2   6  -2  179.36   12.97
   2   6   2  168.68   12.79
   2   6   2  162.67   12.30
   2  -6  -2  205.70   20.70
  -2   6  -2  130.48   19.40
   2   6   2  176.82   13.02
   2   6  -2  151.28   18.46
  -2   6   2  180.73   17.85
   2   6  -2  169.06   17.69
  -2   6   2  169.38   13.20
  -2   6   2  166.73   13.03
   2   6  -2  181.92   12.71
   2   6  -2  173.02   12.52
   2   6  -2  171.50   12.43
   2  -6   2  158.92   13.09
   2  -6   2  181.87   20.39
  -2   6   2  164.07   12.77
  -2  -6  -2  174.69   21.70
   2   6  -2  171.90   12.95
  -2   6   2  177.06   12.40
   2   7   2   -9.92   11.62
   2   7   2   -3.67    2.24
   2   7   2    1.48    2.23
  -2   7  -2   -3.10    3.41
  -2   7  -2    2.75    2.48
  -2  -7   2   -9.73   15.13
   2  -7  -2    0.16   13.35
   2  -7  -2   -0.83    2.62
   2   7  -2    0.94    2.05
  -2   7   2   -3.60    2.28
  -2  -7  -2   -6.51   13.54
  -2   7   2   -3.25    5.80
   2   7  -2   -2.89    2.51
  -2   7   2   -0.60    2.72
  -2   7   2    6.60   10.84
   2  -7   2  -18.69   10.32
   2   7  -2   -1.65    2.35
   2   7  -2   -0.75    2.13
   2   7  -2   -7.99   13.08
  -2   7   2   -3.79    2.34
   2   8   2   82.04    6.63
   2   8   2   78.40    6.46
   2   8   2   66.73    5.87
   2  -8  -2   75.11    6.90
  -2   8  -2   73.85    6.33
  -2   8   2   76.59    6.40
   2  -8   2   80.98    7.45
   2   8  -2   73.24    6.44
   2   8  -2   75.30    6.13
   2  -8   2   65.55    5.89
  -2   8   2   75.69    6.25
   2   8  -2   72.16    6.26
   2   9   2    0.34    1.22
   2   9   2   -1.13    1.19
   2   9   2    4.19    1.75
  -2  -9   2    0.89    2.28
  -2   9  -2    3.66    1.23
   2  -9  -2    5.35    2.13
  -2   9   2   -0.38    1.24
  -2   9   2   -1.68    1.90
   2   9  -2    0.81    0.93
   3   0   2    0.08    1.77
  -3   0  -2    0.62    1.19
  -3   0   2   -1.13    1.66
   3   0  -2   -0.68    1.65
  -3   0   2   -1.00    2.00
   3   0   2   -0.21    1.23
  -3   0   2   -0.64    1.28
  -3   0  -2    3.43    1.92
   3   0   2    1.31    0.99
  -3  -1   2  138.15    9.37
  -3  -1   2  133.13    8.92
  -3   1  -2  124.43    8.81
  -3  -1   2  119.14    9.64
   3   1   2  118.00    8.85
   3  -1  -2  145.87    9.40
   3   1   2  122.51    9.47
  -3   1  -2  109.41   10.42
   3  -1   2  129.43    9.04
   3   1  -2  130.03    9.63
   3  -1   2  122.46    8.91
   3   1  -2  121.08    8.91
  -3   1   2  119.05    9.35
  -3   1   2  130.45    9.59
  -3   1   2  128.01    9.32
   3   2   2   87.08    8.08
   3   2   2  100.19    8.67
  -3   2  -2  104.94    8.12
  -3   2  -2  105.86   10.34
  -3  -2   2   96.88    9.14
  -3  -2   2   99.98    8.67
   3   2   2  118.42    8.79
  -3   2  -2  102.78   11.40
  -3   2   2  108.14    8.35
   3   2  -2  101.99    8.10
  -3   2   2  106.19    9.32
   3  -2   2  104.61    8.48
   3  -2   2  104.80    8.58
  -3   2   2  121.69    9.66
   3   2  -2  114.96    9.00
  -3   3  -2  242.00   17.34
   3   3   2  266.24   17.89
  -3   3  -2  228.74   19.44
   3   3   2  242.76   17.91
  -3  -3   2  229.52   18.95
   3  -3  -2  236.57   17.97
  -3   3   2  273.05   19.20
  -3   3   2  246.57   17.52
   3  -3   2  249.61   17.93
   3   4   2    3.21    2.81
   3   4   2    9.81    4.40
  -3  -4   2   10.35    6.69
   3   4   2   -0.81    2.92
  -3   4  -2    1.07    5.40
   3  -4  -2    5.73    5.71
  -3   4  -2    1.97    2.91
   3   4   2   -2.01    2.25
  -3   4  -2   -8.06    5.04
   3   4   2    1.43    3.48
   3   4   2    2.22    2.40
   3   4  -2    2.08    1.95
   3   4  -2    3.96    2.35
  -3   4   2   -0.25    2.10
   3   4  -2    2.45    3.11
  -3   4   2   -3.50    3.44
   3   4  -2    4.79    3.31
   3   4  -2    4.93    2.24
  -3   4   2    1.82    3.03
   3  -4   2   -2.51    3.24
   3  -4   2    1.60    4.57
  -3   5  -2  265.66   18.39
   3   5   2  252.74   17.69
   3  -5  -2  248.34   19.94
  -3   5  -2  217.39   22.20
   3   5   2  251.90   20.75
   3   5   2  256.04   18.16
  -3  -5   2  254.38   24.88
   3  -5  -2  258.92   22.86
   3   5   2  264.22   17.63
   3   5   2  250.88   18.21
   3   5   2  266.19   20.89
   3   5  -2  275.81   21.35
   3   5  -2  278.59   18.35
   3  -5   2  226.89   26.01
  -3  -5  -2  281.41   25.35
   3   5  -2  279.20   17.79
   3  -5   2  273.83   18.70
   3   5  -2  271.60   17.93
  -3   5   2  259.96   17.57
  -3   5   2  263.92   20.56
  -3   5   2  255.16   18.16
  -3   5   2  249.19   19.17
   3   6   2   18.57    7.67
   3   6   2    6.71    2.26
  -3   6  -2   13.93    2.98
  -3   6  -2    3.78    2.81
  -3  -6   2    5.42   11.00
   3   6   2   13.92    2.75
   3   6   2   10.44    3.02
   3  -6  -2   22.81   18.61
   3   6   2    9.07    3.42
   3  -6   2   -1.20   13.23
   3   6  -2    6.45    2.45
   3   6  -2   10.82    7.55
   3  -6   2   11.49    3.48
   3   6  -2    8.06    2.36
  -3   6   2    9.16    2.48
  -3   6   2    9.44    3.76
  -3   6   2    9.78    2.77
   3   6  -2    7.26    2.76
  -3   6   2   19.40    8.42
   3   6  -2    8.36    2.36
  -3  -6  -2    2.17   11.97
  -3   7  -2   94.80    8.19
   3   7   2   93.54    7.97
   3  -7  -2  102.26    8.43
   3   7   2   95.57    8.39
   3   7   2  119.61   18.76
   3   7   2   98.73    7.74
  -3  -7   2   80.26   35.54
   3   7   2   80.12    8.41
   3   7  -2  104.72    8.07
   3   7  -2  104.32    7.73
  -3   7   2   90.31    8.08
  -3   7   2   93.02    7.82
   3   7  -2  107.39    8.30
  -3  -7  -2   90.22   22.39
   3  -7   2  100.49    8.72
   3   7  -2  100.45    7.77
   3  -8  -2   10.94    2.41
   3   8   2   12.80    2.52
   3   8   2   22.81    3.31
  -3  -8   2   15.08    3.06
  -3   8  -2   20.29    3.33
   3   8   2   18.95    2.91
   3   8  -2   19.73    2.99
   3   8  -2   18.63    2.82
  -3   8   2   13.38    2.40
   3  -8   2   15.37    3.06
   3  -8   2   24.02    3.56
   3   8  -2   20.49    3.32
  -3   8   2   11.75    2.23
   3   8  -2   18.26    3.60
  -3   9  -2   38.38    3.20
  -3  -9   2   49.41    4.15
   3   9   2   38.00    3.29
   3  -9  -2   40.08    4.07
   3   9   2   41.92    3.58
  -3   9   2   38.05    3.39
   3   9  -2   44.33    3.30
   4   0   2  252.04   18.34
  -4   0   2  267.80   17.87
  -4   0  -2  276.99   17.46
  -4   0   2  242.49   18.60
  -4  -1   2   50.16    5.36
   4   1   2   43.92    5.10
   4   1   2   45.43    5.86
  -4   1  -2   50.41    5.05
   4  -1  -2   47.60    5.38
   4   1  -2   57.41    5.82
  -4   1   2   49.04    5.46
  -4   1   2   58.64    7.82
   4  -1   2   51.41    4.95
  -4   2  -2  322.26   24.46
  -4   2  -2  275.08   18.61
   4   2   2  266.71   19.31
  -4  -2   2  261.08   18.65
  -4   2   2  224.92   20.82
   4   2  -2  298.98   19.76
   4  -2   2  266.09   18.63
   4   3   2   40.70    5.09
  -4   3  -2   37.14    5.44
  -4   3  -2   48.59    9.01
  -4  -3   2   21.81    5.86
   4   3   2   29.86    4.21
   4   3   2   36.47    6.75
   4   3   2   27.40    4.85
   4  -3  -2   25.60    5.19
   4   3  -2   31.83    4.33
   4   3  -2   31.99    4.27
   4   3  -2   36.59    5.99
   4  -3   2   40.05    7.20
   4  -3   2   34.52    5.12
   4   3  -2   41.84    5.62
   4  -3   2   34.60    6.67
   4  -3   2   27.28    6.23
  -4   3   2   26.38    5.73
  -4   3   2   33.89    4.27
  -4   3   2   30.58    5.75
   4   3  -2   38.32    4.35
   4   4   2  164.34   14.27
   4  -4  -2  160.25   13.34
   4   4   2  160.54   10.75
   4   4   2  170.21   11.71
   4   4   2  144.93   11.40
   4   4   2  142.63   10.92
   4   4   2  142.77   12.40
  -4   4  -2  132.47   19.19
   4   4   2  163.99   13.95
  -4  -4   2  139.81   18.69
   4  -4   2  131.02   11.88
   4  -4   2  146.25   14.13
  -4   4   2  151.80   13.21
   4  -4   2  129.75   14.21
   4   4  -2  149.45   13.47
   4   4  -2  150.38   11.43
   4   4  -2  152.72   10.97
   4  -4   2  154.36   12.02
  -4   4   2  155.83   10.85
   4   4  -2  153.76   11.00
   4   4  -2  157.28   10.95
  -4   5  -2    9.69    8.72
  -4  -5   2   15.29   10.72
   4   5   2   10.47    2.56
  -4   5  -2    9.28    3.30
   4  -5  -2   15.80    4.16
   4   5   2   16.49    7.08
   4   5   2   13.69    3.68
   4   5   2    8.42    6.04
   4   5   2    5.83    3.10
   4   5   2   10.79    2.21
   4   5  -2    3.44    2.80
   4   5  -2    4.28    2.27
  -4   5   2    6.50    2.78
  -4   5   2    1.44    6.39
   4   5  -2   14.42    2.60
  -4   5   2    8.84    2.37
   4   5  -2    7.34    2.45
   4   5  -2    5.45    5.50
   4  -5   2   12.10    3.61
   4  -5   2    5.49    6.35
  -4  -5  -2   -4.13   10.03
  -4  -6   2   37.19   19.22
  -4   6  -2   68.51    6.74
   4   6   2   68.01    6.16
   4  -6  -2   58.82   10.66
   4   6   2   60.28   11.29
   4   6   2   64.17    7.00
   4  -6  -2   75.99    7.14
   4   6   2   77.54    7.41
   4   6   2   65.81    6.30
  -4  -6  -2   75.37   17.96
  -4   6   2   68.61    6.67
   4   6  -2   75.77   16.01
  -4   6   2   72.28    6.58
   4   6  -2   78.41    6.39
   4   6  -2   76.29    6.40
  -4   6   2   67.68   11.86
   4   6  -2   69.96    6.86
   4   6  -2   75.90    6.61
   4  -6   2   64.14    7.33
  -4   7  -2    0.38    2.58
   4   7   2    0.34    2.02
   4   7   2    1.54    1.64
   4   7   2    1.11    2.68
   4  -7  -2   -0.88    3.33
   4   7   2    4.01    3.45
   4   7  -2    4.34    2.85
  -4   7   2    5.50    2.20
   4  -7   2    0.42    5.19
  -4   7   2   -3.88    2.06
   4   7  -2   -0.98    1.88
   4   7  -2    0.69    2.14
  -4  -8   2   29.88    5.23
   4  -8  -2   33.59    3.99
  -4   8  -2   28.14    3.64
   4   8   2   36.58    3.88
   4   8   2   35.69    3.36
   4   8   2   34.98    3.68
   4  -8   2   35.19    4.15
   4   8  -2   41.19    4.05
   4   8  -2   37.45    3.38
  -4   8   2   28.44    3.59
  -4   8   2   37.84    4.44
   4   8  -2   35.72    3.75
  -4   9  -2    0.60    0.70
   4   9   2    1.42    1.20
   4   9   2    3.25    0.96
   4  -9  -2    5.09    2.32
   4   9  -2    1.33    1.07
   5   0  -2    1.41    3.58
   5   0   2    2.45    4.44
   5   0   2    4.96    2.50
  -5   0   2   -2.04    2.25
  -5   0  -2   -2.25    2.58
   5   0  -2   -1.97    2.59
   5   1   2   43.11    6.96
  -5   1  -2   61.38    6.55
   5  -1  -2   56.97    6.24
  -5  -1   2   49.55    6.20
   5  -1  -2   47.61    6.46
   5  -1  -2   61.05    9.15
   5  -1  -2   63.58    8.52
   5   1   2   54.31    5.82
   5   1   2   67.25    8.43
   5   1  -2   57.01    6.36
   5  -1   2   44.85    9.36
   5  -1   2   50.32    7.57
   5  -1   2   58.16    5.67
   5   1  -2   54.72    6.67
   5  -1   2   44.45    6.22
  -5  -1  -2   50.44    6.77
   5   1  -2   54.31    5.07
   5   1  -2   54.93    5.30
   5   1  -2   52.27    5.05
  -5   1   2   59.98    6.30
   5  -2  -2    2.20    2.22
  -5  -2   2    0.50    2.98
   5   2   2    0.82    3.00
   5   2   2    1.34    2.49
  -5   2  -2   -4.05    5.03
  -5   2  -2   -1.53    4.02
   5   2   2   -5.40    4.15
   5   2   2   -0.25    2.25
   5  -2  -2   -2.59    3.15
   5   2   2    0.67    1.83
   5  -2  -2   -0.04    4.04
  -5   2   2    1.58    3.10
   5  -2   2    3.66    4.22
   5   2  -2    3.98    3.08
   5  -2   2    3.57    3.20
   5  -2   2    1.18    1.90
   5   2  -2    5.06    2.84
   5  -2   2   -4.03    4.51
   5  -2   2    1.44    3.85
   5   2  -2    0.29    1.69
   5   2  -2    4.99    3.49
   5   2  -2    1.29    1.64
   5   2  -2    3.00    1.76
   5   3   2  100.98    8.09
   5   3   2  105.01    8.59
   5   3   2   89.63    9.34
   5   3   2  115.66   10.87
  -5   3  -2   74.57   13.84
   5  -3  -2  106.96    9.58
   5  -3  -2  100.01   10.52
   5   3   2  104.36    7.75
   5   3   2  101.75   10.76
   5   3  -2  101.55    7.95
  -5   3   2   98.59    7.87
  -5   3   2  107.51   10.53
   5   3  -2  107.53    9.73
   5  -3   2  105.93   10.65
   5  -3   2  117.93    9.66
   5   3  -2  110.85    7.90
   5   3  -2  110.60    8.04
   5  -3   2  101.03    9.16
   5  -3   2  112.71   11.18
   5   3  -2  102.33    8.44
  -5   3   2  102.29   13.35
   5   3  -2  107.99   10.94
   5   4   2   22.18    3.61
  -5   4  -2   25.16    9.07
   5  -4  -2   22.35    4.41
   5   4   2   33.51    6.41
   5   4   2   26.13    3.99
   5  -4  -2   17.61    4.30
   5   4   2   24.08    4.21
   5   4  -2   19.77    5.70
   5  -4   2   22.82    4.19
   5   4  -2   23.06    3.85
   5   4  -2   24.60    3.92
   5   4  -2   16.23    3.15
   5  -4   2   23.77    5.56
  -5   4   2   20.32    3.94
   5   4  -2   24.36    3.82
  -5   4   2   15.45    5.24
   5   4  -2   19.28    4.53
  -5   5  -2   11.91   11.58
   5   5   2   -5.29    8.42
  -5   5  -2   11.54    3.11
   5   5   2    7.76    2.90
   5   5   2    5.23    1.82
   5  -5  -2    5.13    3.28
   5  -5  -2    8.73    3.01
   5   5   2    4.10    2.04
   5   5  -2    7.78    2.25
  -5   5   2   -3.73    7.67
  -5   5   2    9.70    2.35
   5   5  -2    8.01    2.64
   5   5  -2    6.10    6.65
   5   5  -2    8.76    2.17
   5  -5   2    8.96    4.29
   5  -5   2   13.97    3.60
  -5   5   2    5.22    2.47
   5   5  -2    8.70    2.27
   5   6   2   -2.17    3.75
   5   6   2    3.50    2.06
   5  -6  -2    4.67    3.69
   5   6   2    1.17    2.31
   5   6   2    1.45    1.71
   5  -6  -2    3.72    2.89
  -5   6  -2    2.25    2.46
   5   6  -2    4.02    1.98
   5  -6   2    7.72    3.02
   5   6  -2    0.69    2.10
  -5   6   2   -0.66    2.30
   5   6  -2    4.39    2.15
   5   6  -2    3.33    2.39
  -5   6   2    1.25    2.23
   5   6  -2   -4.27   10.66
   5  -7  -2   38.67    4.68
   5   7   2   39.56    3.95
  -5   7  -2   42.20    4.64
   5   7   2   41.57    4.29
   5   7   2   44.99    4.70
   5   7  -2   45.30    4.20
  -5   7   2   40.71    4.76
   5   7  -2   41.87    4.66
   5   7  -2   40.75    4.02
   5  -7   2   42.47    5.02
   5   7  -2   41.03    4.37
  -5   7   2   36.00    4.49
   5  -8  -2    1.33    1.65
   5   8   2    2.37    1.32
   5   8   2    0.25    1.16
   5   8   2    1.33    1.43
  -5   8  -2    3.91    1.51
   5  -8   2    0.43    1.71
  -5   8   2    0.04    1.37
   5   8  -2   -0.15    1.20
   6   0  -2   59.53    5.79
  -6   0   2   60.10    7.26
   6   0   2   49.59    7.14
   6   0  -2   47.89    9.12
  -6   0  -2   48.01    8.57
   6   0   2   57.60    8.69
   6   0  -2   60.30    5.19
   6   0   2   51.49    5.04
   6   0  -2   48.23    5.72
   6   0  -2   52.08    7.74
   6   0  -2   52.47    4.91
   6   0   2   53.89    5.80
   6   1   2   17.10    4.04
  -6  -1   2   16.95    3.97
   6   1   2   20.26    4.11
   6  -1  -2   30.21    5.28
   6  -1  -2   23.80    4.56
   6   1   2   21.98    4.20
   6   1   2   26.05    3.28
  -6   1  -2   26.42    6.40
   6  -1  -2   22.85    3.11
   6   1   2   21.33    5.04
   6   1   2   16.17    2.78
   6  -1   2   17.72    3.34
   6  -1   2   24.45    4.34
   6  -1   2   19.53    4.56
   6   1  -2   26.86    3.96
   6   1  -2   22.33    3.33
   6   1  -2   18.78    3.39
   6  -1   2   26.84    3.73
   6   1  -2   15.71    4.26
   6   1  -2   14.39    3.12
   6   1  -2   15.65    5.50
  -6   1   2   15.47    4.46
   6   2   2  169.67   11.37
   6   2   2  162.06   11.87
   6   2   2  154.97   14.37
   6  -2  -2  140.35   12.09
  -6  -2   2  151.77   14.34
   6  -2  -2  169.95   11.75
   6   2   2  151.51   11.38
  -6   2  -2  151.03   17.48
   6  -2  -2  154.11   12.53
   6  -2  -2  169.92   13.48
   6   2   2  155.44   13.22
  -6  -2  -2  169.81   14.00
   6   2  -2  171.93   12.41
   6  -2   2  171.89   13.81
   6   2  -2  151.31   14.39
   6   2  -2  158.83   11.26
   6  -2   2  154.41   12.58
   6  -2   2  164.05   12.23
   6  -2   2  163.80   11.63
   6  -2   2  156.87   12.69
   6   2  -2  169.64   11.30
  -6   2   2  176.43   14.32
   6   2  -2  178.11   11.71
  -6   3  -2   10.11    8.72
   6  -3  -2    3.77    3.34
   6   3   2    7.90    5.54
   6  -3  -2    6.79    5.61
   6   3   2   -1.19    3.74
  -6  -3   2   13.20    5.56
   6   3   2    4.59    1.89
   6   3   2    6.46    2.17
   6   3   2    5.04    2.22
   6  -3   2    1.28    3.56
  -6   3   2    4.96    1.99
   6  -3   2    5.75    3.47
   6   3  -2    4.28    3.01
   6   3  -2    5.10    2.11
   6  -3   2    3.80    2.76
   6   3  -2    2.98    1.90
   6   3  -2   12.43    5.21
  -6   3   2    3.12    4.92
   6   3  -2    2.16    1.76
   6  -3   2    1.82    3.94
  -6   4  -2   61.23   13.70
   6   4   2   53.33    6.02
   6  -4  -2   51.45    7.16
   6   4   2   51.39    5.11
   6   4   2   49.16    5.05
  -6  -4   2   71.13   12.86
   6   4   2   53.49    5.70
   6  -4  -2   58.77    6.49
   6   4  -2   53.76    5.29
  -6   4   2   37.02    8.31
   6  -4   2   54.31    6.59
   6  -4   2   47.54    6.46
   6   4  -2   55.18    5.77
   6   4  -2   46.04    6.91
   6  -4   2   48.65    7.64
  -6   4   2   60.92    5.27
   6   4  -2   50.91    5.60
   6  -4   2   52.08   10.17
   6   4  -2   50.14    9.67
   6   4  -2   53.39    5.12
   6  -5  -2    3.04    2.77
   6   5   2    1.49    2.44
  -6   5  -2    2.20    2.30
  -6  -5   2   -5.14    9.03
   6   5   2    4.50    2.48
   6   5   2    2.61    1.89
   6  -5  -2    3.02    3.11
   6   5   2    1.12    1.75
   6  -5   2    1.25    2.74
   6  -5   2    5.34    3.24
   6   5  -2    1.83    1.68
   6   5  -2    2.93    1.99
  -6   5   2   -1.73    2.19
   6   5  -2    3.32    2.33
  -6   5   2    2.00    2.44
  -6   5   2  -14.84   12.49
   6   5  -2    0.41    1.78
  -6   6  -2   62.07    6.46
   6  -6  -2   62.70    8.48
   6   6   2   69.23    5.57
   6   6   2   76.03    6.24
   6   6   2   70.27    5.91
   6  -6  -2   67.74    6.46
   6   6  -2   78.30    6.15
   6   6  -2   65.46    5.67
  -6   6   2   68.76    6.33
   6  -6   2   58.57    9.47
  -6   6   2   75.23    6.43
   6   6  -2   74.90    6.02
   6  -6   2   74.20    6.53
   6   7   2    0.95    1.25
   6   7   2   -2.38    1.80
  -6   7  -2    0.95    1.65
   6   7   2    0.32    1.34
   6   7  -2    3.44    1.55
   6   7  -2    3.74    1.48
   6   7  -2    0.43    1.15
   6  -7   2    2.23    1.79
  -6   7   2    4.41    1.69
   6  -8  -2   25.54    2.88
   6   8   2   21.22    2.21
  -6   8  -2   18.73    2.28
   6   8  -2   19.44    2.04
   6  -8   2   21.39    2.72
  -7   0   2   -1.35    4.79
   7   0  -2   -1.32    2.12
   7   0  -2   -1.32    2.15
   7   0  -2    0.37    1.88
   7   0  -2    5.80    5.46
   7   0   2   -3.25    2.97
   7   0   2   -0.58    1.74
   7   0   2   -0.89    1.97
   7   0   2   -3.75    3.68
   7   0  -2   -0.98    3.73
   7  -1  -2   -1.19    3.22
   7   1   2    4.19    1.66
   7   1   2    4.63    2.53
   7   1   2    1.83    3.68
  -7  -1   2   14.84    5.81
   7  -1  -2    4.52    2.03
   7   1   2    6.06    3.74
   7  -1  -2    2.21    2.44
   7  -1  -2    4.56    2.48
   7   1   2    5.97    2.47
   7   1  -2    4.22    1.65
   7   1  -2    4.19    4.54
   7  -1   2    6.29    3.27
   7  -1   2    4.04    1.92
   7   1  -2    1.15    2.41
  -7  -1  -2   -0.92    7.04
   7   1  -2    3.60    1.73
   7   1  -2    4.22    1.99
   7  -1   2    3.66    3.78
  -7   1   2    3.42    5.84
   7  -1   2    5.21    2.72
  -7  -2   2   15.56    6.88
   7  -2  -2    8.51    3.13
   7   2   2    8.29    2.04
   7  -2  -2    4.42    2.79
   7   2   2    9.43    3.63
  -7   2  -2    8.70    8.99
   7   2   2   11.14    2.78
   7   2   2    7.65    1.89
   7  -2  -2    8.07    2.14
   7  -2  -2   12.32    3.60
   7   2  -2    9.61    2.84
   7  -2   2    0.92    3.88
   7   2  -2   13.47    5.92
   7   2  -2    5.01    1.69
  -7  -2  -2    9.66    9.50
   7   2  -2   13.30    2.60
   7  -2   2    8.33    3.03
   7  -2   2   10.75    3.90
  -7   2   2    9.00    2.04
   7  -2   2    4.02    2.27
   7   2  -2    5.21    1.92
  -7   2   2    9.88    6.56
   7   3   2   16.04    7.58
  -7   3  -2   -0.66   13.09
   7   3   2    7.78    2.40
   7   3   2    6.45    1.83
  -7  -3   2   15.40    8.58
   7  -3  -2    5.18    3.57
   7  -3  -2    2.25    2.82
   7   3   2    6.85    3.40
   7   3   2    6.27    1.90
   7  -3   2    2.27    3.17
  -7  -3  -2    4.99   11.12
   7  -3   2    3.90    3.73
   7   3  -2    7.18    1.85
  -7   3   2    7.78   10.86
   7  -3   2    8.25    3.42
  -7   3   2    7.60    2.01
   7   3  -2    9.40    2.34
   7   3  -2    6.33    1.94
   7   3  -2   10.06    7.47
   7  -3   2    5.94    2.74
   7   3  -2    7.11    2.96
   7  -4  -2    8.77    3.40
   7   4   2    6.16    2.48
   7   4   2    7.14    1.92
  -7   4  -2   34.34   17.69
   7  -4  -2    6.11    2.96
   7   4   2    8.82    1.99
   7   4   2    8.40   10.50
  -7  -4   2    8.44   11.11
   7   4  -2   -1.01    7.56
   7  -4   2    6.91    3.08
   7   4  -2    3.96    2.05
   7  -4   2    5.43    4.52
  -7   4   2    4.09    2.36
   7  -4   2    2.45    3.08
   7   4  -2    4.07    1.62
   7   4  -2    4.39    2.82
  -7   4   2   34.45   17.74
   7   4  -2    2.98    1.86
  -7  -4  -2  -13.69    9.79
   7  -4   2    7.21    2.79
   7   5   2   18.79    3.11
   7   5   2   12.39    3.43
   7  -5  -2   13.84    3.28
   7  -5  -2   17.45    3.29
  -7   5  -2   16.08    3.13
   7   5   2   15.92    2.39
   7  -5   2   17.46    3.79
   7   5  -2   24.87    3.18
  -7   5   2   21.04    3.80
   7   5  -2   24.51    3.45
   7   5  -2   15.69    2.95
   7  -5   2   19.68    3.32
   7   6   2    0.74    1.25
   7  -6  -2    3.44    2.24
   7   6   2   -1.97    1.40
  -7   6  -2    2.01    1.83
   7   6   2    1.29    2.53
  -7   6   2    2.07    1.73
   7   6  -2   -0.67    1.17
   7   6  -2   -0.91    1.57
   7   6  -2   -0.41    1.18
   7  -6   2    0.82    3.99
   7  -6   2    1.78    2.02
  -7   7  -2   11.01    1.80
   7   7   2   12.69    1.75
   7   7   2   10.50    1.98
  -7   7   2    7.39    1.68
   7  -7   2   13.53    1.98
   7   7  -2   10.36    1.89
   7   7  -2   10.69    1.98
   7   7  -2    9.28    1.58
   8   0  -2   17.69    3.31
   8   0   2   19.51    4.14
   8   0   2   18.79    4.02
   8   0   2   19.84    4.09
   8   0  -2   15.17    2.89
   8   0  -2   11.05    3.63
  -8   0   2   10.10    8.44
   8   0   2   18.73    3.44
   8   0  -2   26.86    4.57
  -8  -1   2   12.82    8.83
  -8   1  -2   -8.25   12.89
   8   1   2    2.63    1.63
   8   1   2   -2.08    2.21
   8  -1  -2    1.84    2.25
   8  -1  -2   -1.51    2.42
   8   1   2    1.98    2.80
   8   1   2   -4.13    3.60
   8  -1  -2   -3.62    2.73
   8  -1  -2   -0.45    1.56
   8  -1   2   -1.42    1.71
   8  -1   2   -3.73    2.85
   8   1  -2   -0.93    1.65
   8   1  -2   12.13    9.76
  -8   1   2   14.49    8.71
   8   1  -2    2.78    2.39
   8   1  -2   -1.67    1.84
   8  -1   2   -0.36    3.29
  -8  -2   2   47.39   10.97
   8   2   2   31.70    4.71
   8   2   2   34.13    3.98
   8  -2  -2   30.61    5.22
   8  -2  -2   33.28    6.17
  -8   2  -2   44.46   14.72
   8   2   2   38.16    4.04
   8  -2  -2   25.86    5.15
   8   2   2   37.36    6.14
   8   2  -2   26.95    4.95
  -8   2   2   32.21    3.78
   8  -2   2   37.71    6.02
   8   2  -2   32.81    4.57
   8   2  -2   36.40    3.70
   8  -2   2   33.42    5.04
   8   2  -2   16.10    8.10
  -8   2   2   38.65   11.68
   8   2  -2   34.76    4.07
   8  -2   2   44.32    6.66
   8   3   2    9.28    1.94
   8   3   2    6.21    4.57
   8  -3  -2    3.00    3.33
   8  -3  -2    6.65    3.06
   8   3   2   13.61    4.70
   8   3   2    8.39    2.65
   8   3  -2   12.17    2.29
   8   3  -2    8.03    2.30
  -8   3   2    8.30    2.17
   8  -3   2    4.66    3.23
   8   3  -2    6.09    3.23
   8  -3   2    3.98    3.32
   8   3  -2    5.76    1.93
   8  -3   2    7.14    2.85
   8  -4  -2   39.11    5.20
   8   4   2   28.40    3.40
  -8   4  -2   42.27    4.69
   8   4   2   33.68    4.43
   8   4   2   36.33    3.57
   8   4  -2   42.80    3.81
   8  -4   2   39.94    5.76
   8   4  -2   25.03    5.20
   8   4  -2   32.34    4.27
   8   4  -2   41.68    3.76
  -8   4   2   38.75    4.41
   8  -4   2   36.47    4.93
  -8   4   2   41.86    4.50
   8   5   2    3.15    1.58
   8  -5  -2    2.57    2.00
   8   5   2   -0.39    1.21
   8   5   2    0.47    2.30
  -8   5  -2    5.03    1.98
   8   5  -2   -0.13    1.25
   8   5  -2    0.93    1.43
   8  -5   2    3.17    2.21
   8   5  -2    1.78    1.22
  -8   5   2    0.46    1.83
   8  -5   2   -1.81    2.11
   8   6   2    5.96    1.43
   8  -6  -2    7.19    2.44
  -8   6  -2    7.35    1.71
   8   6   2    7.39    1.40
  -8   6   2    8.66    1.64
   8  -6   2    7.53    2.07
   8   6  -2    8.66    1.69
   8   6  -2   12.68    2.32
   9   0  -2   -2.42    1.44
   9   0   2   -0.77    2.67
   9   0   2    1.80    1.60
   9   0   2    2.46    3.08
   9   0  -2   -2.80    3.02
   9   0  -2   -0.97    1.87
   9   0  -2    0.38    2.18
   9   0   2    2.01    1.73
   9   1   2    3.94    2.48
   9  -1  -2    2.09    2.24
   9   1   2    5.50    3.50
   9   1   2    6.26    1.75
   9  -1  -2    4.69    2.77
   9   1   2    2.06    2.10
   9  -1  -2    3.18    2.35
   9  -1   2    5.89    2.97
  -9   1   2    4.21    1.66
   9   1  -2    2.10    2.00
   9   1  -2    2.23    2.14
   9  -1   2    9.97    2.80
   9   1  -2    3.22    1.67
   9  -1   2    5.19    2.14
   9   2   2    5.95    2.05
   9  -2  -2    6.46    2.68
   9   2   2    4.47    1.71
   9  -2  -2   -0.14    2.50
   9   2   2    3.79    2.81
   9  -2   2    2.06    2.80
   9  -2   2    4.87    2.07
  -9   2   2    2.92    1.94
   9   2  -2    3.17    2.06
   9  -2   2    6.38    2.66
   9   2  -2    6.14    2.50
   9   2  -2    5.17    1.74
   9  -3  -2    0.88    2.12
   9   3   2    3.40    1.40
   9   3   2    1.40    2.01
   9   3   2   -0.53    2.68
   9  -3  -2    4.85    3.89
  -9   3   2    1.16    2.11
   9   3  -2   -1.29    2.22
   9   3  -2    2.30    1.67
   9  -3   2    1.54    2.10
   9  -3   2    2.09    2.26
  -9   4  -2    3.37    1.93
   9  -4  -2    2.39    1.77
   9   4   2    4.26    1.28
   9   4   2    5.47    1.78
   9  -4   2    0.79    1.90
   9   4  -2    3.21    1.20
  -9   4   2    3.35    1.57
   9   5   2    4.86    1.39
  -9   5  -2    8.41    1.64
   9  -5  -2    5.00    1.82
   9   5  -2    3.73    0.98
  -9   5   2    3.99    1.49
   9   5  -2    4.91    1.55
   9  -5   2    4.27    2.09
  10   0   2    0.06    2.66
  10   0  -2   -2.29    2.47
  10   0  -2    2.20    1.76
 -10   0   2    3.27    1.59
  10   0   2   -1.21    1.34
  10   0   2   -0.75    1.98
  10   1   2    8.93    1.97
 -10  -1   2    6.34    1.75
  10  -1  -2    9.33    2.80
  10  -1  -2    3.15    3.02
  10   1   2    2.72    1.82
  10   1   2    7.01    1.42
  10  -1  -2    3.77    2.00
 -10   1   2    3.83    2.15
  10  -1   2    6.11    2.04
  10  -1   2    4.05    2.51
  10  -1   2    5.17    1.80
  10   1  -2    6.24    1.92
  10   1  -2    6.54    1.85
  10   1  -2    5.97    1.48
  10   2   2    0.17    2.10
  10   2   2   -1.06    1.19
  10  -2  -2   -1.98    2.19
  10  -2  -2    0.88    1.96
  10   2   2    0.71    1.50
  10  -2   2   -1.30    1.71
  10   2  -2    3.36    1.28
  10   2  -2    0.91    2.25
  10  -2   2   -0.79    2.06
  10   3   2    1.34    0.93
  10   3   2   -1.82    1.42
 -10   3  -2    3.51    1.96
  10  -3  -2    0.23    1.79
  10  -3   2    1.44    1.66
  10   3  -2    0.54    1.07
  10   3  -2   -0.23    1.07
 -10   3   2    3.18    1.52
   0   0   3    1.41    1.00
   0   0   3    0.90    1.00
   0   0   3   -0.41    0.93
   0   0  -3   -0.34    0.83
   0   0  -3    1.05    1.54
   0   1   3  506.79   31.20
   0  -1   3  542.44   31.73
   0   1   3  475.58   31.46
   0   1  -3  507.36   31.50
   0   1  -3  403.56   32.02
   0   1   3  495.18   31.34
   0  -1   3  502.91   31.02
   0  -1   3  478.17   31.52
   0   2  -3    1.10    2.21
   0   2   3    0.40    1.23
   0   2   3    0.61    2.14
   0   2  -3   -1.61    2.49
   0   2   3   -1.70    1.23
   0   2   3   -0.10    1.23
   0  -2   3    1.52    1.98
   0  -2   3    1.08    2.26
   0   3  -3    1.77    2.90
   0   3  -3   -0.03    2.60
   0  -3   3   -5.30    3.10
   0  -3   3    6.21    3.67
   0   3  -3   -3.16    4.42
   0   3   3    3.39    2.43
   0   3   3   -1.36    2.57
   0   3   3    3.83    1.82
   0   4  -3    2.35    4.17
   0  -4   3    3.87    5.16
   0   4  -3    0.43    3.72
   0   4   3   -1.99    3.14
   0   5   3  128.09   10.01
   0   5  -3  140.91   10.51
   0  -5   3  129.86   15.90
   0   5  -3  153.55   14.28
   0   5   3  143.53    9.98
   0  -5   3  163.38   16.55
   0   5   3  135.29   10.87
   0   5   3  119.29   10.29
   0   5   3  127.37   13.68
   0   5  -3  138.48   12.99
   0   5  -3  120.80   14.24
   0   5  -3  105.62   10.21
   0   5   3  127.87   10.50
   0   6  -3   -3.48    6.86
   0   6  -3    0.94    3.80
   0   6   3    0.27    2.71
   0   6   3   -0.65    2.37
   0  -6  -3   -5.99    9.79
   0   6   3    1.39    6.89
   0  -6   3    6.32    8.38
   0   6  -3   -1.80   10.43
   0   6  -3    2.24    2.67
   0   6   3   -0.48    2.29
   0  -7   3   -5.29   13.74
   0   7   3    3.10    2.53
   0   7   3    4.77   10.10
   0   7   3   10.43    2.89
   0   7  -3    9.80    2.55
   0   7  -3    8.41    2.70
   0   7  -3    5.03    3.51
   0   7   3    8.70    2.71
   0   7   3    7.97    2.71
   0   7  -3   26.52   11.65
   0  -7  -3   -2.73   14.47
   0   8  -3   -0.10    2.09
   0   8   3   -3.98    2.35
   0  -8   3    0.07    1.67
   0   8   3   -2.13    2.07
   0  -8  -3   -5.94    3.09
   0   8   3    1.62    2.02
   0   8   3   -1.98    1.75
   0   8  -3   -1.34    1.89
   0   9   3    8.63    2.42
   0   9   3    2.63    1.39
   0   9   3    3.37    1.56
   0   9  -3    4.71    1.43
   0  -9   3    6.49    1.58
  -1   0   3    1.95    0.90
   1   0   3    1.06    0.96
   1   0   3   -0.59    1.02
  -1   0   3    0.90    1.26
   1   0  -3    2.28    1.40
  -1   0   3    0.34    1.05
  -1   0  -3   -0.87    0.97
   1   0   3    0.66    0.97
  -1   0  -3   -0.22    1.98
   1   0  -3    0.64    1.08
  -1   1  -3  131.86    9.47
   1   1   3  133.51    9.12
  -1  -1   3  136.65    9.07
  -1  -1   3  129.82    9.45
  -1   1  -3  111.54   10.38
   1   1   3  126.32    9.27
  -1  -1   3  139.65    9.42
   1   1   3  134.82    8.72
  -1   1   3  135.00    9.06
  -1   1   3  140.41    9.10
   1  -1   3  133.85    9.43
   1  -1   3  134.13    9.32
  -1   1   3  134.69    9.25
   1   1  -3  133.39    9.24
  -1   1   3  128.80    9.42
  -1   2  -3   14.40    3.62
  -1   2  -3   11.81    2.88
   1   2   3   18.51    1.96
   1   2   3   16.37    2.73
   1   2   3   21.98    3.28
   1   2   3   12.98    2.54
   1   2   3   16.18    2.17
  -1   2  -3   19.08    3.49
   1   2  -3   12.13    2.96
  -1   2   3   13.75    2.66
   1   2  -3   21.18    3.85
   1  -2   3   13.76    2.60
  -1   2   3   17.40    2.95
   1  -2   3   21.86    3.89
  -1   2   3   16.21    2.47
  -1  -3   3    9.49    3.96
   1   3   3   15.34    3.49
   1   3   3   14.87    2.52
  -1  -3   3   10.05    3.73
  -1   3  -3   19.41    3.99
   1   3   3   14.08    3.53
   1   3   3   16.60    2.90
   1  -3   3    6.51    3.49
  -1   3   3   14.47    3.28
   1   3  -3   14.14    3.69
   1   3  -3   17.91    3.44
   1   3  -3   18.72    4.07
  -1   3   3   15.61    3.53
  -1   4  -3   12.06    4.72
   1   4   3   -3.71    3.29
  -1  -4   3    2.17    5.08
  -1   4  -3   -2.54    4.11
   1  -4   3   -0.25    5.13
   1   4  -3    0.73    3.88
  -1   4   3    2.59    3.81
   1   4  -3   -0.35    3.38
   1   5   3   37.82    6.94
  -1   5  -3   45.28    5.95
  -1  -5   3   32.48    7.99
   1   5   3   43.53    5.21
   1   5   3   37.13    5.53
   1   5   3   43.58    6.92
   1   5   3   43.11    5.77
   1  -5  -3   53.15    8.46
  -1   5  -3   33.44    5.66
  -1   5  -3   50.41    8.99
   1   5   3   44.03    5.09
  -1   5  -3   45.69    8.62
   1   5  -3   50.17    8.48
  -1   5   3   49.86    6.00
  -1   5   3   48.29    5.37
   1  -5   3   44.49    6.81
   1   5  -3   37.05    5.64
  -1   5   3   43.10    5.28
   1  -5   3   57.73    8.75
  -1   5   3   39.65    6.42
  -1   5   3   54.37    9.56
   1   5  -3   29.20    6.51
  -1   5   3   33.02    6.51
   1   5  -3   46.97    7.51
   1   5  -3   47.59    5.46
   1   6   3   24.76    4.74
   1   6   3   16.84    3.32
  -1   6  -3   15.29    8.16
   1  -6  -3   11.30    9.53
   1   6   3   19.75    8.18
  -1   6  -3   24.33    3.88
  -1   6  -3   14.20    3.30
   1   6   3   18.84    3.34
   1   6   3   21.02    3.60
  -1  -6   3   25.29   10.81
   1   6  -3   19.59    8.14
  -1  -6  -3   10.64   10.39
  -1   6   3   19.48    3.57
   1   6  -3   21.71    3.89
   1   6  -3   20.50    3.46
  -1   6   3   21.13    3.62
  -1   6   3   26.23    4.30
   1  -6   3   38.27   10.32
   1   6  -3   19.62    3.42
  -1   6   3   17.83    7.64
   1   6  -3   24.96    9.88
  -1   6   3   20.22    3.58
   1  -6   3   21.20    5.30
   1   7   3    9.21    2.82
   1   7   3   18.61   11.48
   1   7   3    9.98    2.62
   1   7   3    7.89    2.92
  -1   7  -3    9.54    2.59
  -1   7  -3   11.73    2.84
   1  -7  -3   32.46   15.03
   1   7   3    7.62    2.53
   1   7  -3    9.81    3.44
   1   7  -3   14.33    3.12
   1  -7   3   34.09   12.75
   1   7  -3   10.64    2.78
  -1   7   3   10.66    2.68
   1  -7   3    8.81    4.46
   1   7  -3   26.93   10.61
   1   7  -3   10.63    2.96
  -1   7   3   11.49    3.03
  -1   7   3   12.27    2.94
  -1   7   3    6.30   10.90
   1   8   3   10.84    2.16
   1   8   3    4.78    2.39
  -1   8  -3   12.72    2.61
   1   8   3    5.73    2.13
   1   8   3   10.31    2.51
  -1  -8   3    5.67    2.07
   1  -8  -3    9.61    3.13
   1   8  -3    4.44    2.25
  -1   8   3    6.49    2.43
  -1   8   3    6.37    2.81
  -1   8   3    8.89    2.30
   1  -8   3    6.86    2.14
   1   8  -3    8.47    2.22
  -1  -8  -3    8.77    5.52
   1   9   3    4.67    1.63
   1  -9  -3   -3.67    3.01
   1   9   3    3.22    1.52
  -1   9  -3    3.00    1.34
  -1  -9   3    2.21    1.43
   1   9   3    1.60    1.31
   1  -9   3   -0.31    1.61
  -1   9   3   -0.59    1.38
  -1   9   3    0.97    1.44
   1   9  -3    3.34    1.66
   2   0   3   60.90    4.41
  -2   0  -3   60.87    4.57
   2   0  -3   62.68    5.08
  -2   0   3   57.26    4.87
   2   0  -3   59.19    4.81
   2   0   3   53.63    4.72
  -2   0   3   58.95    4.52
  -2   0   3   61.00    5.24
  -2   1  -3   30.82    4.66
   2   1   3   30.37    3.53
   2  -1  -3   32.48    3.12
  -2  -1   3   29.72    3.47
  -2  -1   3   34.23    5.80
  -2  -1   3   31.54    3.41
   2   1   3   29.55    3.99
  -2   1  -3   34.75    5.79
   2   1   3   31.27    3.30
   2   1  -3   23.92    3.54
  -2   1   3   26.55    3.99
   2  -1   3   30.09    3.81
  -2   1   3   32.22    3.76
  -2   1   3   32.06    3.67
   2   1  -3   27.68    4.17
  -2   1   3   34.25    3.20
   2  -1   3   37.59    3.61
  -2  -2   3  164.88   13.61
  -2   2  -3  192.75   14.22
  -2  -2   3  207.26   13.47
   2   2   3  194.99   12.97
  -2   2  -3  159.81   14.85
   2   2   3  181.53   13.35
   2   2   3  194.09   13.12
   2   2  -3  179.18   13.06
   2   2  -3  166.73   13.67
   2  -2   3  185.85   13.11
   2  -2   3  189.44   13.55
  -2   2   3  177.25   12.81
  -2   2   3  196.40   13.25
  -2   2   3  200.94   13.20
  -2   2   3  194.10   13.60
  -2   2   3  162.08   12.90
  -2  -3   3   42.81    7.38
   2   3   3   49.22    6.07
  -2   3  -3   42.25    8.51
  -2   3  -3   47.16    7.63
   2   3   3   41.84    5.40
   2   3   3   37.97    6.08
  -2   3   3   57.68    7.90
   2   3  -3   46.82    6.87
   2  -3   3   37.21    7.14
  -2  -4   3   66.76   11.53
   2   4   3   63.28    8.13
   2   4   3   51.13    6.25
  -2   4  -3   71.41   10.08
   2   4   3   61.53    6.15
   2   4   3   56.89    6.59
  -2   4  -3   47.75   10.08
   2   4  -3   70.72    7.80
  -2   4   3   62.01    5.74
  -2   4   3   63.99    8.04
  -2   4   3   77.68    8.43
   2   4  -3   54.92    6.21
   2  -4   3   67.15   10.79
   2  -4   3   50.00    8.97
   2   4  -3   57.60    8.07
   2   5   3    0.16    2.36
   2   5   3    0.52    5.47
   2   5   3    8.93    4.36
   2   5   3    4.09    2.82
  -2   5  -3   -3.20    2.80
   2   5   3   -1.99    2.64
  -2   5  -3    2.00    5.63
   2   5   3   -2.67    2.36
  -2  -5   3    2.11    8.21
  -2   5   3   -4.92    4.68
   2  -5   3    1.99    5.94
  -2   5   3    4.05    2.96
   2   5  -3    0.89    2.38
   2   5  -3    0.36    2.27
  -2   5   3    6.11    2.92
   2   5  -3    1.33    3.18
   2   5  -3    2.41    5.40
   2  -5   3   -0.91    3.76
  -2   5   3    4.73    3.75
   2   5  -3   -3.53    2.97
  -2   5   3   -0.69    2.18
   2  -6  -3   15.82   10.75
  -2   6  -3    4.90    2.93
   2   6   3    4.90    2.60
   2   6   3   -4.97   11.78
  -2   6  -3    5.29    2.66
   2   6   3    7.97    2.60
   2   6   3    3.47    2.40
  -2  -6   3   15.77   14.31
   2   6   3    7.90    2.58
  -2   6  -3    1.37    9.17
  -2   6   3    5.28    2.20
  -2   6   3   10.03    3.24
   2   6  -3    5.15    2.56
   2   6  -3    2.08    3.07
   2  -6   3   -7.09   12.65
   2   6  -3    9.03    2.59
   2   6  -3   11.26    3.24
  -2   6   3    6.28    3.08
   2   6  -3   19.26   11.11
   2  -6   3   13.01    3.76
  -2   6   3    7.36    2.99
   2   7   3    6.99    2.74
  -2   7  -3   11.61    2.93
   2   7   3    4.07    2.41
  -2  -7   3    7.85   16.06
   2   7   3    3.94    2.48
   2  -7  -3  -11.20   15.38
   2   7   3   -7.29   11.23
   2   7   3    7.26    2.38
  -2   7  -3    1.30    2.39
   2   7  -3    4.56    2.81
   2   7  -3    1.11    2.16
  -2   7   3    4.44    2.18
  -2   7   3    5.72   11.56
  -2   7   3    9.58    2.98
   2   7  -3    5.94    2.67
   2  -7   3    0.91    1.81
  -2   7   3   11.08    3.63
  -2  -7  -3   11.16   15.17
  -2   7   3    9.70    2.63
   2  -7   3    4.36    3.33
   2   7  -3    6.70    2.29
   2  -7   3    5.11   11.11
   2   7  -3    3.73   10.56
   2   8   3    2.58    2.13
  -2  -8   3   11.21    2.70
   2   8   3    7.57    2.58
   2   8   3    5.37    1.95
  -2   8  -3    4.76    2.15
   2   8   3    8.76    2.03
   2  -8  -3    5.61    2.66
   2  -8   3    3.42    1.79
   2  -8   3   13.39    3.69
  -2   8   3    8.56    2.15
   2   8  -3    6.21    1.99
   2   8  -3   10.23    2.54
   2   8  -3    9.67    2.89
  -2   8   3    7.51    2.08
   2   8  -3    5.56    1.77
  -2  -9   3    6.38    1.88
   2   9   3    2.60    1.47
   2   9   3    5.02    1.29
  -2   9  -3    5.60    1.19
   2  -9  -3   -0.13    2.36
   2   9  -3    4.57    1.25
   2  -9   3   -0.24    1.29
  -2   9   3    0.91    1.38
  -3   0  -3   -0.53    1.37
  -3   0   3    1.97    2.71
   3   0  -3    0.79    1.68
  -3   0  -3    0.49    1.81
  -3   0   3   -1.95    1.25
   3   0   3   -0.83    2.40
  -3   0   3   -0.61    1.60
   3   0   3    0.73    1.18
   3   1   3  149.91   11.58
  -3  -1   3  141.11   12.44
   3   1   3  170.62   11.39
  -3  -1   3  160.90   11.61
   3   1   3  159.46   12.30
  -3  -1   3  155.62   11.15
  -3   1  -3  153.04   12.86
   3  -1  -3  182.19   11.58
  -3   1  -3  153.90   10.97
   3   1  -3  165.13   11.60
   3  -1   3  160.73   11.44
  -3   1   3  173.08   12.52
  -3   1   3  184.59   12.24
   3   1  -3  170.05   12.25
  -3   1   3  165.33   11.87
   3  -1   3  165.75   11.53
   3   2   3   41.79    5.29
  -3  -2   3   52.97    5.40
  -3  -2   3   46.03    8.09
   3   2   3   47.14    5.39
  -3   2  -3   33.92    7.36
   3   2   3   43.86    4.87
  -3   2   3   46.48    5.24
  -3   2   3   34.41    6.19
   3  -2   3   31.21    5.33
   3   2  -3   37.09    5.56
   3   2  -3   31.42    5.55
  -3   2   3   48.86    7.04
  -3  -3   3  128.62   12.09
   3   3   3  124.39   10.96
  -3   3  -3  128.24   13.08
  -3   3   3  133.84   10.69
  -3   3   3  111.56   14.29
   3   3  -3  139.45   11.65
   3  -3   3  120.60   11.02
   3   4   3    8.54    5.48
   3   4   3    9.54    4.49
  -3  -4   3    5.20    7.12
   3   4   3    2.32    2.32
  -3   4  -3   -2.22    2.92
   3  -4  -3    4.39    4.51
  -3   4  -3    5.02    5.85
   3   4   3    3.26    3.35
   3  -4  -3    2.36    5.24
   3   4   3   -0.77    2.17
   3   4   3   -2.27    2.93
   3  -4   3    6.09    3.54
   3   4  -3    1.22    2.56
   3   4  -3    3.94    4.58
  -3   4   3    1.41    1.78
  -3   4   3    0.94    3.29
   3  -4   3    0.42    4.88
   3   4  -3    1.84    2.18
   3   4  -3   -0.70    1.79
   3   4  -3    3.02    3.01
  -3   4   3   -1.08    4.03
   3  -5  -3   48.29    9.54
  -3   5  -3   58.16    8.29
   3  -5  -3   50.26    9.06
   3   5   3   70.02   10.83
  -3  -5   3   55.67   11.38
   3   5   3   57.32    5.35
   3   5   3   54.09    6.24
   3   5  -3   69.47   10.50
   3   5  -3   57.09    6.81
   3  -5   3   36.66    7.85
  -3   5   3   39.83    8.46
   3  -5   3   41.79    5.89
  -3   5   3   58.53    7.23
  -3   5   3   60.00    8.89
   3   5  -3   66.98    5.93
  -3   5   3   46.09    6.42
   3   6   3   -1.37    2.06
  -3  -6   3   -3.07   13.22
  -3   6  -3    1.54    2.34
   3  -6  -3   -5.47   12.14
   3   6   3    2.42    2.29
   3   6   3    1.68    2.53
   3   6   3    3.16    2.99
   3   6   3   -5.45    8.49
  -3   6  -3    2.71   10.17
  -3   6  -3    1.52    2.74
   3  -6   3   -6.36    8.74
  -3  -6  -3    1.33   11.41
   3   6  -3    2.11    2.14
  -3   6   3   -0.58    2.56
   3   6  -3   10.72    7.99
  -3   6   3   -0.16    3.50
   3  -6   3    0.59    3.31
   3  -6   3    0.28    1.86
   3   6  -3    2.93    1.94
  -3   6   3  -11.99    7.19
   3   6  -3    4.02    2.56
  -3   6   3    2.77    2.24
   3   6  -3    2.38    2.52
   3   7   3   36.97    5.08
   3   7   3   24.86    4.19
   3  -7  -3   22.92    4.04
   3   7   3   33.32    4.45
  -3   7  -3   35.65    4.71
  -3   7  -3   24.95    4.84
   3   7   3   27.10    4.59
  -3   7   3   40.05    4.70
   3   7  -3   30.22    4.69
   3   7  -3   33.29    4.86
   3   7  -3   31.98    4.09
   3  -7   3   37.75    5.44
   3   7  -3   39.02    4.29
  -3   7   3   26.58    4.16
   3  -7   3   33.70    3.99
   3   8   3   -0.67    1.49
   3   8   3    4.41    2.07
  -3  -8   3    1.85    2.78
  -3   8  -3    2.67    1.76
   3  -8  -3   -0.91    2.16
   3   8   3    2.03    1.66
   3  -8   3    2.17    2.54
   3  -8   3    4.07    1.66
   3   8  -3    4.96    2.23
   3   8  -3    3.04    1.62
  -3   8   3    3.93    1.87
  -3   8   3   -0.53    1.67
   3   8  -3    1.24    1.77
   3   9   3   15.50    1.72
   3   9   3   17.99    2.26
   3  -9  -3   20.10    3.31
   3   9  -3   17.12    1.87
   4   0  -3  106.87    8.47
   4   0   3   93.91    7.83
  -4   0   3  102.88    8.34
  -4   0  -3   93.27    8.51
  -4   0  -3  104.66    7.72
  -4   1  -3    9.40    3.09
   4  -1  -3    8.76    2.61
   4   1   3    8.43    3.24
   4   1   3    9.45    2.46
  -4   1   3    1.96    5.87
   4  -1   3    8.94    2.49
   4   1  -3    4.93    2.88
  -4  -2   3   42.49    6.51
  -4   2  -3   54.98    8.92
  -4  -2   3   42.72    6.07
  -4   2   3   55.91    6.51
   4  -2   3   48.77    6.18
   4   2  -3   57.44    6.68
   4   3   3   60.39    7.86
   4   3   3   50.57    8.21
  -4  -3   3   44.05    6.86
   4   3   3   52.50    5.21
   4  -3  -3   69.13    8.29
   4   3   3   48.91    5.62
   4   3   3   54.82    6.94
   4  -3   3   44.12    7.80
  -4   3   3   52.09    4.88
   4   3  -3   54.97    5.97
   4  -3   3   52.95    7.36
   4   3  -3   57.21    5.44
   4  -3   3   46.77    8.12
   4   3  -3   56.05    5.18
   4   3  -3   55.78    8.40
  -4   3   3   56.04    6.63
   4   3  -3   59.74    7.69
   4   3  -3   55.43    5.43
   4  -3   3   54.43    8.21
   4  -3   3   50.77    7.01
  -4   4  -3   63.80    6.75
   4   4   3   64.99   10.71
   4   4   3   73.53   10.59
   4   4   3   65.00    5.53
   4   4   3   58.35    6.75
  -4   4  -3   53.07    9.96
  -4  -4   3   57.21    9.46
   4   4   3   67.00    5.90
   4   4   3   55.97    7.24
   4  -4  -3   54.58    8.90
   4  -4   3   55.21    7.20
   4   4  -3   59.18    6.53
  -4   4   3   55.14    6.72
   4  -4   3   58.55    7.56
   4   4  -3   67.36    5.78
   4  -4   3   52.54   10.40
  -4   4   3   60.98    5.59
   4  -4   3   62.27   11.28
   4   4  -3   62.88    5.91
   4   4  -3   65.38    5.79
   4   4  -3   65.72    9.46
  -4   4   3   68.75    8.59
   4   5   3    2.08    2.18
  -4   5  -3    2.92    8.76
   4   5   3   -3.06    2.78
   4   5   3    8.44    7.54
  -4  -5   3    4.42   12.57
   4   5   3    2.69    2.79
   4   5   3    3.41    1.99
  -4   5  -3    0.13    2.66
   4  -5  -3    1.51    3.62
   4  -5   3   17.84    8.39
   4   5  -3    4.25    6.21
  -4  -5  -3   11.92   10.83
  -4   5   3    0.62    6.79
   4   5  -3    4.55    2.30
   4  -5   3    7.76    8.93
   4  -5   3    0.71    3.07
  -4   5   3    3.63    2.69
   4   5  -3    7.66    2.33
   4   5  -3    4.39    2.11
  -4   5   3    2.78    1.83
   4   5  -3   -0.74    2.69
  -4   6  -3   24.03    4.74
   4  -6  -3   24.34    4.67
  -4   6  -3   13.11   13.51
   4   6   3   29.36    4.39
  -4   6  -3   14.58    2.99
   4   6   3   23.69    3.55
   4   6   3   20.20   10.31
   4  -6  -3   13.96    4.56
  -4  -6  -3    9.26   17.78
   4  -6   3   21.24    2.95
   4   6  -3   26.25    3.99
  -4   6   3   31.07    9.58
   4   6  -3   31.61   11.21
  -4   6   3   16.72    2.83
   4   6  -3   17.40    3.20
  -4   6   3   28.88    4.83
   4   6  -3   27.49    4.19
  -4   7  -3   -2.83    2.05
   4   7   3    1.28    2.06
   4   7   3    0.98    1.74
   4   7   3   -1.79    1.92
   4  -7  -3   -2.35    2.23
  -4  -7   3   -6.93    3.69
  -4   7  -3    1.99    2.18
   4   7   3   -2.67    2.36
   4   7  -3    2.88    2.01
   4   7  -3   -1.47    2.36
   4  -7   3   -0.86    2.71
   4  -7   3   -0.75    2.15
   4   7  -3    1.06    1.77
  -4   7   3    0.75    1.84
   4   7  -3    0.65    1.90
  -4   7   3   -1.63    2.15
  -4   8  -3    5.42    1.61
   4   8   3    5.99    2.05
   4   8   3    5.91    1.73
  -4  -8   3    9.96    3.04
   4   8   3    5.12    1.62
   4  -8  -3    5.81    1.75
   4  -8   3    4.35    2.37
   4   8  -3    9.36    2.22
   4   8  -3    6.67    1.58
  -4   8   3    4.70    2.22
  -4   8   3    3.43    1.74
  -5   0  -3   -0.18    3.07
   5   0   3    3.90    2.75
  -5   0   3   -2.77    2.64
   5   0  -3    1.57    2.55
   5   0  -3    1.97    1.93
   5   0  -3    1.23    2.43
   5   0   3    1.35    4.32
   5   0  -3    1.07    2.55
   5   0   3   -1.17    4.06
   5   1   3  113.09    9.27
   5   1   3  118.20   11.19
   5  -1  -3  105.74    9.90
   5   1   3  100.22   11.53
   5   1   3  119.68    8.52
   5  -1  -3  121.65    9.02
  -5  -1   3  120.66   10.01
   5  -1  -3  109.25   11.40
   5   1  -3  115.11   10.33
  -5  -1  -3  114.74    9.62
   5   1  -3  112.78    8.42
   5   1  -3  116.86    9.28
   5  -1   3  112.02    9.90
   5  -1   3   99.41   12.79
   5   1  -3  122.26    8.57
   5  -1   3   97.73    8.75
   5   1  -3  123.80    8.78
  -5   1   3  120.57   10.48
   5  -1   3  119.28   10.74
   5  -1   3  125.43    9.37
   5   2   3   10.61    5.39
   5   2   3    6.78    3.57
  -5  -2   3    9.55    3.48
  -5   2  -3    7.35    5.56
   5   2   3    8.36    3.10
   5   2   3    4.13    4.46
   5   2   3    5.98    1.98
   5  -2  -3    5.30    3.76
   5  -2  -3    7.76    3.32
   5   2   3    2.93    2.77
   5  -2   3    6.78    3.50
   5  -2   3    6.54    2.82
   5   2  -3    6.57    2.00
   5   2  -3   11.23    4.13
   5   2  -3   10.78    3.16
   5  -2   3    5.93    2.26
  -5   2   3    3.79    3.34
   5  -2   3    5.95    3.25
   5  -2   3    1.64    4.18
   5   2  -3    4.65    1.80
   5   2  -3    6.97    1.75
   5   3   3  167.00   13.89
   5  -3  -3  158.96   13.22
   5   3   3  162.84   11.22
   5   3   3  156.38   11.39
  -5   3  -3  163.39   17.68
   5   3   3  167.03   12.13
  -5  -3   3  156.89   14.10
   5   3  -3  168.61   11.26
   5   3  -3  156.41   11.74
   5   3  -3  177.65   14.57
   5   3  -3  165.35   11.44
  -5   3   3  165.22   13.82
   5  -3   3  154.60   14.66
   5  -3   3  161.86   13.85
   5   3  -3  160.01   12.50
   5   3  -3  164.14   11.49
  -5   3   3  147.61   11.14
   5  -3   3  154.71   12.61
   5  -3   3  145.56   12.35
   5   4   3   45.37    8.23
  -5   4  -3   27.76    9.86
   5   4   3   40.09    7.73
   5   4   3   37.63    4.80
   5  -4  -3   46.77    7.34
   5  -4  -3   40.68    5.73
   5   4   3   36.64    4.31
  -5  -4   3   37.53    7.07
   5   4   3   31.69    5.71
   5   4  -3   42.44    5.41
   5   4  -3   43.16    4.90
   5   4  -3   41.70    4.77
   5  -4   3   32.75    6.10
   5   4  -3   58.17    7.53
  -5   4   3   41.33    4.58
  -5   4   3   49.42    7.43
   5   4  -3   45.59    4.58
   5  -4   3   33.10    6.32
   5  -4   3   46.67    8.93
   5   4  -3   51.69    9.61
  -5   5  -3   29.50    5.35
   5  -5  -3   29.26    5.16
  -5  -5   3   33.06   10.81
  -5   5  -3   31.99   12.75
   5   5   3   34.92    3.91
   5  -5  -3   32.04    4.81
   5   5   3   24.84    5.06
   5   5   3   35.52    4.38
   5   5  -3   36.15    5.13
   5   5  -3   31.47    4.42
  -5   5   3   27.19    5.01
   5   5  -3   38.74    4.25
  -5   5   3   36.36    4.34
   5  -5   3   30.41    5.44
   5   5  -3   32.13    7.79
   5  -5   3   33.69    5.89
  -5   5   3   41.76    8.18
   5   5  -3   34.42    4.32
   5   6   3    5.36    1.90
   5   6   3    7.99    2.46
   5  -6  -3    6.55    2.61
   5   6   3    7.91    3.62
  -5   6  -3    4.03    2.38
   5   6   3    7.96    2.62
   5  -6  -3    6.00    4.84
   5   6  -3    9.74    2.91
  -5   6   3    8.47    2.52
  -5   6   3    7.15    2.24
   5   6  -3    6.35    2.06
   5  -6   3    8.09    2.81
   5   6  -3    9.40    2.28
   5   6  -3    6.90    2.20
   5   7   3   32.99    4.19
  -5   7  -3   42.39    4.47
   5   7   3   40.19    3.87
   5   7   3   40.59    3.99
   5  -7  -3   40.88    4.25
   5   7  -3   43.24    3.83
  -5   7   3   31.03    4.14
   5   7  -3   42.61    4.25
  -5   7   3   40.32    4.12
   5  -7   3   31.41    4.61
   5   7  -3   37.80    3.93
  -5   8  -3   -1.79    1.43
   5  -8  -3    2.35    1.59
   5   8   3    0.54    1.34
   5   8   3    0.17    1.31
   5  -8   3    2.67    1.76
   5   8  -3    1.99    1.08
   5   8  -3    2.16    2.02
  -5   8   3   -0.24    1.64
   5   8  -3   -1.34    1.19
   6   0   3   74.06    6.92
   6   0  -3   73.32    6.35
   6   0  -3   73.83    8.81
   6   0  -3   60.32    6.85
   6   0  -3   82.11    9.49
  -6   0   3   78.95    9.15
   6   0   3   72.06    6.15
   6   0  -3   78.77    6.87
   6   0   3   74.04    8.95
   6   0   3   70.99    8.84
   6  -1  -3   26.23    3.95
  -6  -1   3   32.09    5.66
   6   1   3   21.88    4.60
   6  -1  -3   21.34    4.04
   6   1   3   22.17    3.46
   6   1   3   20.46    4.28
   6   1   3   26.20    3.43
   6  -1  -3   20.33    4.17
   6  -1  -3   16.65    3.11
   6  -1   3   20.74    3.64
   6   1  -3   32.51    6.98
   6   1  -3   24.70    4.13
   6   1  -3   23.18    3.58
  -6  -1  -3   20.33    5.79
   6  -1   3   22.78    4.15
   6  -1   3   16.95    4.19
   6  -1   3   24.96    5.15
   6   1  -3   16.24    3.32
  -6   1   3   21.84    4.47
   6  -1   3   24.49    4.65
   6   2   3  130.95   10.09
   6  -2  -3  125.98   10.63
   6   2   3  138.64   13.23
  -6  -2   3  140.46   13.01
   6  -2  -3  138.03   11.89
   6   2   3  132.94   10.14
   6   2   3  128.18   12.00
  -6   2  -3  164.52   17.91
   6  -2   3  133.49   10.87
   6  -2   3  153.75   14.84
   6  -2   3  136.03   11.16
   6   2  -3  144.07   11.34
  -6  -2  -3  132.26   13.09
  -6   2   3  140.76   12.89
   6   2  -3  136.65   13.30
   6   2  -3  132.87    9.77
  -6   2   3  132.18   10.62
  -6  -3   3   17.78    6.68
   6   3   3    9.20    3.94
   6   3   3    5.25    2.15
   6  -3  -3    7.97    4.10
   6   3   3   16.25    6.79
  -6   3  -3    2.90   10.58
   6   3   3    7.74    2.20
   6   3   3    4.86    2.64
   6  -3  -3    7.99    3.55
   6  -3   3    5.37    3.28
  -6   3   3    6.52    2.07
   6   3  -3    8.26    2.10
  -6   3   3    8.87    5.76
   6  -3   3    8.94    4.31
   6  -3   3    0.14    3.79
   6   3  -3    7.96    6.42
   6  -3   3    4.60    2.80
   6   3  -3    4.71    1.79
   6   3  -3    6.67    2.00
   6   3  -3    3.47    2.97
   6   4   3   47.70    4.87
   6  -4  -3   52.87    6.49
  -6   4  -3   57.54   14.27
   6   4   3   44.68    6.09
   6   4   3   48.78    5.98
   6   4   3   56.65    5.11
   6   4   3   40.04   10.99
   6  -4  -3   46.52    7.05
   6  -4   3   64.71    9.44
   6   4  -3   53.94    5.09
   6   4  -3   55.39    9.08
   6  -4   3   42.52    6.19
   6   4  -3   61.81    5.19
  -6   4   3   50.22    4.92
   6   4  -3   42.84    6.70
   6  -4   3   47.51    8.05
  -6   4   3   54.99    8.68
   6   4  -3   52.21    5.26
   6  -4   3   51.48    6.37
   6   5   3    7.55    2.50
   6   5   3    5.30    1.85
   6  -5  -3    6.37    2.83
  -6   5  -3   -0.46    2.40
   6   5   3    0.23    1.75
   6  -5  -3    9.03    2.85
   6   5   3    6.61    3.36
  -6  -5   3    9.93   10.78
   6   5  -3    4.80    2.12
   6  -5   3    4.79    3.75
  -6   5   3    6.56    2.12
  -6   5   3  -21.38   15.10
   6   5  -3    4.92    1.86
   6  -5   3    2.73    2.62
   6   5  -3    3.95    1.91
  -6   5   3    4.28    2.37
   6   5  -3    1.68    7.99
  -6   6  -3   38.42    4.80
   6  -6  -3   39.81    6.16
   6  -6  -3   50.37    4.96
   6   6   3   42.13    4.11
   6   6   3   38.22    4.18
   6   6   3   35.99    4.81
  -6   6   3   44.72    4.54
   6   6  -3   47.48    4.24
   6   6  -3   48.97    4.40
  -6   6   3   36.86    4.76
   6  -6   3   48.34    5.33
   6   6  -3   51.25    4.66
   6   7   3    2.83    1.63
  -6   7  -3    4.56    1.71
   6   7   3    6.74    2.27
   6   7   3    3.86    1.58
   6   7  -3    0.48    1.52
   6   7  -3    1.11    1.17
   6   7  -3    2.23    1.35
  -6   7   3    4.16    2.47
  -6   7   3   -0.85    1.83
   6  -7   3    0.14    1.96
   7   0  -3    4.18    3.43
   7   0   3    0.37    1.67
   7   0   3   -3.01    2.10
   7   0   3   -2.34    3.34
   7   0  -3   -2.15    2.28
  -7   0   3   11.64    8.65
   7   0   3   -0.53    2.94
   7   0  -3   -0.41    1.97
   7   0  -3    1.67    6.12
   7   0  -3    0.49    2.23
  -7   1  -3   88.18   18.73
   7  -1  -3   63.84    5.93
   7  -1  -3   67.22    6.73
   7   1   3   65.51    6.43
   7   1   3   67.55    5.66
   7  -1  -3   76.49    6.67
   7   1   3   63.37    8.40
   7  -1  -3   74.66    8.24
   7   1   3   66.69    8.41
  -7  -1   3   62.76   11.85
   7   1  -3   78.71   13.51
   7  -1   3   52.95    6.43
   7   1  -3   62.72    6.65
  -7   1   3   56.40   11.55
   7  -1   3   59.85    5.81
   7  -1   3   61.18    7.64
   7  -1   3   60.99    8.76
   7   1  -3   71.76    6.10
   7   1  -3   73.28    5.75
   7   1  -3   65.27    5.69
  -7  -2   3    7.77    7.01
   7   2   3    6.71    2.85
   7   2   3    7.15    1.80
   7  -2  -3    9.81    3.28
   7  -2  -3    6.85    2.70
   7   2   3   11.19    3.72
  -7  -2   3    9.74    2.94
   7   2   3   17.41    4.26
  -7   2  -3    3.47    9.46
  -7   2   3    6.18    5.96
   7   2  -3    9.69    2.88
   7  -2   3    5.81    3.19
   7   2  -3    7.25    1.95
   7  -2   3    7.66    3.65
   7   2  -3    6.70    2.15
   7  -2   3    6.70    3.29
  -7   2   3    7.46    1.96
   7   2  -3    4.03    6.51
   7   2  -3    6.99    1.94
   7  -2   3   10.05    3.00
   7   3   3   52.98    5.88
   7   3   3   51.16    4.93
  -7   3  -3   77.02   19.13
   7  -3  -3   53.78    7.91
   7  -3  -3   49.91    7.05
   7   3   3   43.62    7.51
   7   3   3   49.75    5.06
   7   3  -3   64.67    9.43
   7  -3   3   40.19    7.86
   7   3  -3   62.75    5.22
   7   3  -3   49.84    4.97
   7   3  -3   56.19    6.28
   7  -3   3   50.25    6.23
   7   3  -3   56.58    5.55
   7  -3   3   61.84    7.45
  -7   3   3   54.72   11.11
   7  -3   3   48.08    6.38
  -7   3   3   57.67    5.01
  -7   4  -3   -1.34    2.19
   7   4   3    4.31    2.39
   7   4   3    3.18    1.67
   7   4   3   -0.36    1.65
   7  -4  -3   -0.85    2.62
   7   4  -3   -0.80    1.42
   7  -4   3    6.49    7.50
  -7   4   3   -0.46    1.83
   7  -4   3    1.71    2.96
   7   4  -3   -0.88    1.65
   7  -4   3    1.05    2.53
   7   4  -3   -0.55    1.74
   7   4  -3   -2.04    2.68
   7  -4   3    4.01    2.71
   7   5   3   63.67    5.40
   7   5   3   63.28    6.55
   7  -5  -3   71.31    7.01
   7   5   3   61.65    5.54
  -7   5  -3   69.89    6.62
   7  -5  -3   63.95    7.13
  -7   5   3   76.93    6.20
   7   5  -3   68.39    5.62
  -7   5   3   69.05    5.76
   7   5  -3   73.24    6.00
   7  -5   3   76.69    6.50
   7  -5   3   79.70    7.27
   7   5  -3   73.91    5.62
   7  -6  -3    0.14    2.22
  -7   6  -3    1.32    2.15
  -7   6  -3   -1.63    2.38
   7   6   3    1.72    1.34
   7   6   3    2.41    1.66
   7  -6  -3    2.31    2.33
   7   6  -3    1.53    1.61
  -7   6   3    1.29    1.83
  -7   6   3    0.38    3.83
   7  -6   3   -1.67    1.97
   7   6  -3    0.98    1.22
   7   6  -3    3.89    1.27
  -7  -7   3   17.01    2.35
  -7   7  -3   18.40    2.84
   7   7  -3   26.70    2.62
   7  -7   3   23.55    2.86
   7   7  -3   19.96    2.20
   7   7  -3   26.11    2.79
   8   0   3   88.26    9.01
   8   0  -3   79.47    6.56
   8   0   3   81.96    8.52
   8   0   3   82.00    6.54
   8   0  -3   78.83    7.13
  -8   0   3   80.38   11.33
   8   0  -3  101.61    8.97
   8   0  -3   83.41    7.46
   8   0   3   70.23    7.19
   8  -1  -3   -0.24    1.63
   8   1   3   -3.18    2.21
  -8  -1   3    8.43    9.45
  -8   1  -3   -3.94   15.06
   8  -1  -3    5.59    2.48
   8  -1  -3   -0.56    2.97
   8   1   3    3.91    3.47
   8  -1  -3    0.23    2.27
   8   1   3    1.56    1.71
   8   1   3    1.90    3.32
   8  -1   3    0.10    3.08
   8   1  -3    2.77    2.26
   8  -1   3    1.89    1.74
   8   1  -3    1.55    1.92
   8   1  -3   -2.50    1.69
   8  -1   3   -1.50    1.91
  -8   1   3   -0.69    8.32
   8   1  -3  -13.92    8.89
   8  -1   3    8.91    3.69
   8  -2  -3   63.73    6.62
   8  -2  -3   72.41    7.36
   8   2   3   60.50    7.43
   8   2   3   61.93    6.23
   8   2   3   62.89    5.40
   8  -2   3   68.26    7.19
   8  -2   3   61.02    6.59
   8   2  -3   60.55    5.65
   8   2  -3   70.97    6.58
   8  -2   3   66.06    8.05
   8   2  -3   69.05    6.11
  -8   2   3   73.02    5.43
   8   3   3   18.12    3.02
   8  -3  -3   20.14    4.28
   8   3   3   13.25    3.67
   8  -3  -3   16.19    3.54
   8   3   3   12.20    2.83
   8   3  -3   25.51    4.24
   8  -3   3   11.49    3.47
   8  -3   3   18.35    3.88
  -8   3   3   20.11    3.30
   8   3  -3   16.10    3.05
   8   3  -3   21.64    2.85
   8  -3   3   19.28    4.05
   8  -3   3   18.14    3.46
  -8  -4   3   62.48    5.57
   8  -4  -3   55.66    6.26
   8   4   3   60.24    5.71
   8   4   3   59.12    4.84
   8   4   3   54.77    4.82
  -8   4  -3   47.14    5.75
  -8   4   3   57.24    4.90
   8   4  -3   60.49    4.92
   8  -4   3   65.01    5.68
   8  -4   3   51.66    6.58
  -8   4   3   59.00    5.27
   8  -4   3   65.97    8.30
   8   4  -3   69.21    6.01
   8   4  -3   52.93    4.89
   8   4  -3   69.53    5.22
  -8  -5   3    2.71    2.10
   8   5   3    6.40    1.62
   8   5   3    5.30    1.55
  -8   5  -3    4.72    1.85
   8  -5  -3    3.85    1.98
   8   5  -3    5.48    1.49
  -8   5   3    4.43    2.03
  -8   5   3    4.43    1.83
   8   5  -3    2.18    1.29
   8  -5   3    3.38    2.27
   8  -5   3   10.39    2.32
   8   5  -3    4.33    1.36
  -8   6  -3   20.66    3.01
   8  -6   3   28.15    3.30
   8   6  -3   26.43    2.58
   8   6  -3   25.62    2.81
   8   6  -3   27.08    2.45
   9   0   3    2.70    1.55
   9   0  -3    2.58    1.98
   9   0   3   -0.05    1.99
   9   0  -3   -0.74    4.21
   9   0   3    1.66    2.91
   9   0  -3    1.57    1.50
   9   0   3    1.15    2.72
   9   1   3   44.60    6.53
   9   1   3   49.32    6.15
   9   1   3   52.81    5.06
   9  -1  -3   48.06    6.27
   9  -1  -3   47.01    6.08
   9   1   3   46.68    4.18
   9  -1  -3   46.90    5.41
   9  -1   3   54.22    5.96
   9  -1   3   51.79    6.55
  -9   1   3   49.23    4.29
   9   1  -3   46.01    5.36
   9   1  -3   50.23    4.50
   9   1  -3   50.46    4.82
   9  -1   3   49.14    5.03
   9   2   3    2.13    1.54
   9   2   3    4.24    1.98
   9  -2  -3    0.50    2.14
   9  -2  -3    3.08    2.34
   9   2   3    1.94    2.77
   9  -2   3    1.79    1.80
   9   2  -3    5.88    1.86
   9   2  -3    2.51    2.01
  -9   2   3    2.70    1.56
   9  -2   3    4.59    2.61
   9   2  -3    4.65    1.59
   9  -2   3    6.12    2.56
  -9   3  -3   37.73    4.72
   9   3   3   40.83    3.74
   9   3   3   48.63    5.47
   9  -3  -3   49.22    5.00
   9   3   3   37.26    4.25
   9   3  -3   50.85    4.93
   9  -3   3   50.91    5.34
   9  -3   3   38.72    4.77
   9  -3   3   41.42    5.00
   9   3  -3   42.13    4.10
   9   3  -3   41.68    3.81
  -9   3   3   46.84    4.12
  -9   4  -3   -1.60    2.90
   9   4   3    3.36    2.09
   9  -4  -3    0.55    1.78
  -9   4   3    1.71    1.53
   9   4  -3   -1.43    1.17
   9   4  -3   -0.77    1.27
   9  -4   3   -0.40    1.88
   9  -5  -3    7.93    1.74
   9   5  -3    7.74    1.33
   9   5  -3   10.52    2.04
  10   0  -3   44.79    5.84
 -10   0   3   64.35    4.54
  10   0   3   67.74    5.56
  10   0   3   56.33    6.00
  10   0  -3   67.22    5.50
 -10  -1   3   -0.42    1.20
  10   1   3    1.48    1.49
  10  -1  -3    2.47    2.14
  10   1   3    3.71    2.15
  10   1  -3    2.96    2.37
 -10   1   3    3.56    1.59
  10  -1   3    4.15    1.63
  10  -1   3    0.25    1.96
  10   1  -3    3.60    1.73
  10   1  -3    1.79    2.02
  10  -1   3   -0.78    2.01
  10  -2  -3   30.54    3.96
 -10  -2   3   33.53    2.74
  10  -2  -3   27.35    4.40
  10   2   3   23.78    4.14
  10   2   3   25.42    3.29
 -10   2  -3   37.13    3.81
  10  -2   3   36.17    3.68
  10   2  -3   26.04    2.77
  10   2  -3   29.27    3.37
  10  -2   3   30.77    3.99
  10  -2   3   27.13    3.31
  10   2  -3   31.73    3.49
  10  -3  -3    0.05    1.69
  10   3  -3   -1.58    1.28
  10  -3   3    3.21    1.85
  10   3  -3   -1.12    1.13
   0   0   4  590.21   37.65
   0   1   4   -0.83    1.39
   0   1   4    0.36    1.50
   0  -1   4   -0.53    1.49
   0  -1  -4   -0.48    1.17
   0   1  -4    1.09    2.43
   0  -1  -4    0.34    1.86
   0  -1   4    1.57    1.29
   0   1   4   -1.82    1.25
   0  -1   4    0.02    2.14
   0   1  -4   -3.07    2.15
   0   2  -4  493.83   38.85
   0   2   4  602.65   37.71
   0   2  -4  602.85   38.27
   0  -2   4  551.80   38.05
   0  -2   4  604.65   38.35
   0   2   4  653.87   37.45
   0   2   4  572.13   38.03
   0  -2   4  567.49   37.66
   0   2   4  593.42   37.43
   0   3  -4    5.77    5.65
   0   3   4   -1.75    2.01
   0   3  -4    2.92    3.18
   0   3   4    0.92    3.19
   0  -3   4   -1.28    3.93
   0   4   4  628.82   41.07
   0   4  -4  583.40   43.91
   0   4   4  665.02   40.94
   0  -4   4  575.21   44.42
   0   4   4  659.72   41.55
   0   4   4  625.04   41.20
   0   4   4  710.67   43.31
   0   5  -4    2.42    5.54
   0   5  -4   -0.40    5.06
   0   5   4   -1.85    1.92
   0  -5   4    1.52    7.20
   0   5   4   -0.19    5.95
   0   5   4    2.42    2.61
   0   5  -4    1.41    2.91
   0   5   4    0.62    3.21
   0   5  -4    0.38    2.40
   0   5   4   -0.09    2.29
   0  -6  -4   80.85   19.57
   0   6  -4  133.09   11.59
   0   6   4  134.88   10.42
   0   6   4  128.33    9.81
   0   6   4  120.39   10.37
   0   6  -4  152.68   23.69
   0   6   4  133.86   10.30
   0   6   4  125.44    9.93
   0   6  -4  124.98   10.23
   0   6  -4  112.77   10.11
   0  -6   4  154.66   28.24
   0   7   4    0.16    2.30
   0   7   4   15.03   12.54
   0   7   4   -2.10    2.60
   0   7  -4    2.02    2.16
   0  -7   4   -1.87    1.95
   0   7   4   -0.08    2.17
   0   7   4   -0.27    2.31
   0   7  -4   -6.21   11.46
   0   7  -4    0.58    2.15
   0  -7  -4   24.36   15.73
   0  -7   4  -21.73   16.03
   0   8  -4   42.15    3.93
   0   8   4   33.22    4.30
   0  -8   4   33.61    4.31
   0   8   4   34.77    4.43
   0   8   4   34.72    4.02
   0   8  -4   37.12    4.42
   0  -8  -4   45.79    5.55
   0   8   4   34.24    4.20
   0  -9   4   -0.61    1.17
   0   9   4   -0.58    1.00
   0   9   4   -0.61    1.91
   0   9  -4    2.75    1.11
   1   0   4   -2.29    1.42
  -1   0  -4   -1.62    2.52
   1   0  -4    4.63    2.01
   1   0   4    0.74    1.18
   1   0  -4   -0.52    1.49
  -1   0   4    0.21    1.02
  -1   0   4    1.17    1.45
  -1   0   4    2.13    1.97
   1   0   4   -0.99    1.46
  -1   0  -4    0.81    1.38
   1   1   4  118.77    8.20
   1   1   4  109.98    8.26
  -1   1  -4  114.97    8.61
  -1   1  -4   99.62   10.00
  -1  -1   4  113.67    8.41
   1   1   4  115.25    7.86
  -1  -1   4  120.97    9.02
   1  -1  -4  125.04    7.66
  -1  -1   4  116.07    8.00
   1   1  -4  119.97    8.49
   1  -1   4  111.97    8.51
  -1  -1  -4  126.72    7.71
   1   1  -4   94.93    9.07
  -1   1   4  111.06    8.04
   1  -1   4  119.61    8.59
  -1  -1  -4   91.45    9.34
  -1   1   4  107.39    8.46
  -1   1   4  102.22    8.30
   1   2   4    2.31    2.30
  -1  -2   4    6.91    3.47
  -1   2  -4    2.08    3.28
   1   2   4    3.30    1.57
   1   2   4    1.79    1.43
  -1   2  -4    3.10    3.61
  -1  -2   4    0.64    2.36
   1   2   4    3.60    2.85
  -1   2   4    2.43    1.56
   1  -2   4    6.49    2.41
  -1   2   4    1.78    2.69
   1  -2   4    2.48    2.85
   1   2  -4    2.36    2.66
   1   2  -4    5.48    3.15
  -1   2   4    3.31    2.23
  -1   2   4    1.53    2.14
   1   3   4  375.95   24.87
  -1  -3   4  367.88   25.50
   1   3   4  359.16   24.02
  -1   3  -4  334.04   26.16
  -1  -3   4  325.60   25.40
  -1   3   4  361.43   24.11
  -1   3   4  378.04   24.71
   1  -3   4  375.67   25.59
   1   3  -4  334.26   25.44
   1   3  -4  342.09   25.25
   1   4   4   10.62    2.77
   1   4   4    6.63    2.48
   1   4   4    6.96    2.61
   1   4   4    3.41    3.25
  -1  -4   4    2.92    5.68
   1   4   4    3.67    4.17
  -1   4  -4    3.82    4.24
  -1   4   4    4.30    3.98
  -1   4   4    7.45    3.27
  -1   4   4    5.24    3.29
  -1   4   4    6.94    2.42
   1   4  -4    5.67    4.22
   1   4  -4    3.21    2.44
   1  -4   4   10.42    5.80
  -1   4   4    8.15    2.43
   1   5   4  100.50    8.26
   1   5   4  100.45    9.04
   1   5   4   97.44   12.63
   1   5   4  110.35    8.40
   1   5   4   84.83    8.29
  -1   5  -4  101.12   14.42
  -1  -5   4  103.13   17.30
  -1   5  -4  106.21    9.22
   1   5   4  119.73    9.11
   1   5  -4  100.78   10.09
   1  -5   4   73.59   11.00
   1   5  -4  113.33    8.62
  -1   5   4   99.20    9.66
  -1   5   4  105.56    8.08
  -1   5   4  102.77    8.31
  -1   5   4  104.24    9.13
   1  -5   4  105.33   16.31
  -1   5   4   98.62   12.23
   1   5  -4   99.07   13.03
   1   5  -4   83.26    8.44
  -1   5   4   99.16    8.75
   1   6   4   15.01    9.16
   1   6   4    5.18    3.01
   1  -6  -4   14.57   14.86
  -1   6  -4    8.18    3.29
  -1   6  -4    4.68    2.54
   1   6   4    0.52    3.13
  -1  -6   4    3.71   11.58
   1   6   4    7.81    2.53
  -1   6  -4    1.45   10.59
   1   6   4   10.17    2.83
   1   6   4    4.69    2.88
  -1  -6  -4   12.65   11.04
  -1   6   4    7.25    2.69
   1   6  -4    5.47    2.71
   1   6  -4    5.10    2.59
  -1   6   4   16.18    7.95
  -1   6   4    5.07    2.47
   1  -6   4    0.25   10.25
   1   6  -4    5.90    3.35
  -1   6   4    7.52    3.36
   1  -6   4   17.05    4.96
  -1   6   4    8.61    2.67
   1   6  -4   10.39    9.57
   1   7   4   26.59    4.63
   1  -7  -4   45.17   16.21
  -1   7  -4   36.17    4.78
  -1   7  -4    2.84   12.37
   1   7   4   11.84   11.90
  -1  -7   4   29.55    5.00
   1   7   4   34.14    4.93
  -1   7  -4   25.27    4.67
   1   7   4   24.08    4.78
  -1  -7   4    5.83   17.16
   1   7   4   29.51    4.73
   1   7  -4   33.09    4.27
  -1   7   4   41.91    4.78
  -1  -7  -4   31.23   17.17
  -1   7   4   30.58    5.39
   1  -7   4   28.59   15.55
   1   7  -4   33.73    4.61
   1   7  -4   36.33    5.19
   1   7  -4   12.06   14.40
  -1   7   4   31.29    5.11
  -1   7   4   24.51   12.18
   1  -7   4   32.28    5.74
   1  -7   4   27.86    4.27
  -1   7   4   31.71    4.48
   1   8   4    2.29    1.95
  -1   8  -4    4.96    2.08
  -1  -8   4   -1.18    2.25
  -1   8  -4    1.59    1.75
   1  -8  -4    2.40    2.48
   1   8   4    1.34    2.03
   1   8   4    1.18    1.83
   1   8   4    1.05    1.86
   1   8  -4    3.28    1.93
   1  -8   4    3.22    1.76
  -1  -8  -4    4.46    3.73
   1   8  -4    3.16    1.65
  -1   8   4    2.94    1.76
  -1   8   4    3.10    2.07
  -1   8   4    0.43    2.30
  -1   8   4    0.57    2.15
  -1   9  -4   14.38    2.52
  -1  -9   4   23.11    2.80
   1   9   4   21.74    2.16
   1  -9  -4   20.01    3.89
   1  -9   4   22.55    2.56
   1   9  -4   19.51    2.55
  -1   9   4   20.02    2.32
  -2   0  -4  222.39   14.56
   2   0   4  220.03   14.85
  -2   0  -4  198.86   16.39
   2   0   4  210.05   14.49
  -2   0   4  209.92   14.91
  -2   0   4  232.20   14.63
  -2   0   4  213.30   15.40
   2   0  -4  233.14   15.00
   2   0  -4  228.38   15.10
   2   1   4    3.10    1.60
   2   1   4    3.45    0.93
  -2  -1   4    4.09    1.62
  -2  -1   4   -0.17    4.16
   2  -1  -4    3.91    1.67
  -2  -1   4    2.72    1.70
  -2   1  -4    3.33    2.92
   2   1   4    3.69    1.94
  -2   1   4    3.23    2.17
   2  -1   4    2.87    1.92
   2  -1   4    0.46    2.09
  -2   1   4    1.85    2.29
   2   1  -4    1.61    2.26
  -2   1   4    7.51    2.83
  -2   1   4    1.18    1.53
   2   1  -4    1.38    2.01
  -2  -2   4  661.10   44.97
  -2  -2   4  655.60   45.71
  -2   2  -4  640.71   46.78
   2   2   4  758.08   44.92
  -2  -2   4  682.86   44.78
  -2   2  -4  654.27   46.25
   2   2   4  668.68   45.06
  -2   2   4  732.66   45.24
   2   2  -4  677.25   45.85
   2  -2   4  690.57   45.22
  -2   2   4  754.07   45.00
   2   2  -4  735.02   45.15
  -2   2   4  692.93   44.62
   2   3   4    2.07    2.34
   2   3   4    0.30    3.34
  -2   3  -4   -5.04    4.18
  -2  -3   4    1.20    3.67
  -2   3   4    3.03    3.19
   2   3  -4   -1.22    3.28
   2   4   4  310.76   20.08
  -2   4  -4  265.48   23.78
   2   4   4  319.42   22.51
   2   4   4  267.62   20.14
   2   4   4  290.22   20.50
  -2  -4   4  285.03   24.40
  -2   4  -4  305.01   21.14
   2   4   4  288.89   20.19
   2   4  -4  313.28   20.26
   2  -4   4  343.46   23.28
  -2   4   4  306.41   20.93
   2   4  -4  350.14   21.25
  -2   4   4  278.15   20.78
  -2   4   4  311.66   22.27
   2  -4   4  274.68   21.56
   2   4  -4  289.21   22.67
   2   4  -4  293.02   20.23
  -2   4   4  326.93   19.99
   2  -4   4  273.09   20.37
  -2   4   4  296.46   19.88
   2  -5  -4    9.51    5.34
  -2   5  -4   -2.21    6.67
   2  -5  -4   16.96    6.97
   2   5   4    2.98    2.61
   2   5   4    9.88    3.87
   2   5   4   21.62    6.33
   2   5   4    8.48    2.93
  -2  -5   4    1.36   12.04
  -2   5  -4   10.39    3.44
   2   5   4    5.51    2.86
   2   5   4    8.45    2.43
   2   5  -4   17.36    4.19
  -2   5   4   10.92    3.53
  -2   5   4   10.90    3.49
  -2   5   4   12.97    6.11
   2  -5   4    2.87    3.89
   2   5  -4   15.50    5.90
   2   5  -4   11.79    3.37
   2   5  -4    8.93    2.76
  -2   5   4   10.08    3.85
   2   5  -4    9.86    2.38
  -2   5   4    5.83    2.09
   2  -5   4   10.14    7.83
  -2   5   4    8.89    2.58
   2  -5   4    9.68    2.65
   2   6   4   95.99    8.65
   2   6   4   88.55    8.17
   2   6   4   91.65   12.65
  -2  -6   4   64.36   14.90
   2   6   4   94.43    7.88
  -2   6  -4   91.05   18.63
   2   6   4   85.87    7.64
  -2   6  -4   91.14    8.60
   2   6   4   86.79    7.85
  -2   6   4   97.74    7.51
   2  -6   4   88.77    9.35
   2  -6   4   89.95   12.47
  -2   6   4   85.70    8.37
   2   6  -4  100.28    7.87
  -2   6   4   90.42   16.66
  -2  -6  -4   54.84   13.09
   2  -6   4   83.06    7.47
  -2   6   4   87.47    7.71
   2   6  -4   89.87    7.62
   2   6  -4   89.87    8.77
   2   6  -4   83.59   17.70
  -2   6   4   81.39    8.25
   2   6  -4  101.14    8.40
   2   7   4   -1.46    3.05
   2   7   4    1.65    2.38
   2   7   4   -2.27    2.06
  -2   7  -4    2.46    2.17
  -2  -7   4    1.15    2.52
  -2   7  -4    2.84    2.50
   2   7   4   -0.82    2.02
   2  -7   4   -5.79    3.40
   2   7  -4    0.14    2.04
  -2   7   4    0.34    1.86
   2   7  -4    4.01    5.55
  -2   7   4    2.14    2.43
  -2   7   4   -0.31    3.05
   2   7  -4    1.26    2.59
   2   7  -4    2.02    2.00
   2  -7   4    0.91    1.80
   2  -8  -4   36.01    4.28
  -2   8  -4   36.32    4.01
  -2   8  -4   28.92    3.80
   2   8   4   31.08    3.63
   2   8   4   38.82    4.25
   2   8   4   29.90    3.80
  -2  -8   4   34.12    4.44
   2   8   4   36.74    4.09
   2  -8   4   46.47    6.30
   2   8  -4   31.65    3.75
  -2   8   4   34.32    3.73
  -2   8   4   24.83    3.98
   2  -8   4   36.72    3.59
   2   8  -4   31.71    3.63
   2   9   4    1.01    0.92
   2  -9  -4   -0.18    2.02
  -2  -9   4   -0.43    1.56
  -2   9  -4    4.01    1.31
   2   9   4    0.08    1.71
  -2   9   4    2.24    1.22
   2  -9   4    1.07    1.21
   2   9  -4    1.46    0.89
   3   0  -4    2.19    2.55
  -3   0  -4   -0.10    1.77
  -3   0   4   -5.26    3.93
  -3   0   4    0.50    1.82
   3   0   4   -0.03    1.70
   3   0   4    0.95    1.70
  -3   0   4   -0.14    1.51
  -3   0  -4   -2.73    2.01
   3   0  -4    0.61    1.79
   3  -1  -4  270.39   16.24
  -3   1  -4  244.71   19.04
  -3  -1   4  232.45   15.91
   3   1   4  236.47   16.18
  -3  -1   4  235.05   16.40
  -3  -1   4  195.95   17.41
  -3   1   4  257.32   17.15
  -3   1   4  237.87   16.69
  -3   1   4  220.16   17.53
  -3   1   4  230.16   15.89
   3  -1   4  247.49   16.38
   3   1  -4  226.13   16.61
   3   1  -4  237.92   16.90
   3   2   4    5.47    2.20
  -3  -2   4    5.84    2.49
   3   2   4   10.91    3.22
  -3   2  -4   15.73    4.93
  -3  -2   4    9.63    2.90
  -3   2   4    2.74    4.98
   3   2  -4    4.61    3.64
  -3   2   4   13.47    3.09
  -3   2   4    7.91    2.66
   3  -2   4   11.43    3.29
   3   3   4  204.99   17.67
   3   3   4  204.09   16.41
   3   3   4  213.86   16.93
  -3   3  -4  215.71   19.69
   3   3  -4  236.03   15.69
   3  -3   4  221.30   17.23
   3  -3   4  218.99   16.72
   3  -3   4  221.78   16.90
   3   3  -4  232.48   17.91
   3   3  -4  266.56   16.25
  -3   3   4  246.17   17.06
  -3   3   4  231.72   15.28
  -3   4  -4    0.58    3.70
  -3  -4   4   -2.13    6.05
  -3  -4   4    4.14    3.89
  -3   4  -4   -1.31    6.60
   3   4   4    2.81    2.69
   3  -4  -4    1.82    4.19
   3   4   4    5.91    2.41
   3   4   4   -1.09    4.80
   3   4   4    5.59    2.79
   3   4   4   -1.37    3.86
   3   4   4    6.06    2.82
  -3   4   4    6.07    4.14
   3   4  -4    7.91    6.38
   3   4  -4    6.85    4.25
   3   4  -4    7.45    2.99
  -3   4   4    0.80    3.93
   3   4  -4    1.26    2.93
   3  -4   4    5.33    4.19
   3   4  -4    3.97    2.31
  -3   4   4    4.01    1.91
  -3   4   4    7.45    2.84
   3  -4   4    2.79    2.61
   3  -4   4   14.46    6.45
   3   4  -4    4.71    2.36
   3   5   4  126.35   10.11
   3  -5  -4  107.81   19.55
  -3   5  -4  136.38   10.87
   3   5   4  142.45   15.27
   3  -5  -4  122.83   12.94
  -3  -5   4  144.42   20.79
  -3   5  -4  118.61   18.99
   3   5   4  142.09   10.79
   3   5   4  122.09   10.54
  -3   5   4  122.09   12.74
  -3   5   4  136.29    9.98
   3   5  -4  134.79   16.21
   3   5  -4  149.83   10.13
   3  -5   4  142.04   15.69
   3  -5   4  135.42   11.58
   3  -5   4  128.96   10.16
   3   5  -4  152.77   11.19
  -3   5   4  137.56   15.35
   3   5  -4  147.02   10.41
  -3   5   4  127.06   11.96
   3   6   4    3.15    2.11
  -3   6  -4    3.28   11.50
  -3  -6   4  -21.24   16.88
   3   6   4   -0.77    2.51
   3   6   4    2.93    2.52
  -3   6  -4    1.30    2.10
  -3   6  -4    1.83    2.74
   3  -6  -4   -6.98    4.60
   3   6   4   13.89   10.56
   3   6   4   -2.08    2.50
   3   6  -4   -0.53    2.23
   3   6  -4    0.05    2.68
   3  -6   4    7.08    3.85
  -3   6   4    3.19    3.64
   3   6  -4    3.65    2.69
  -3   6   4   -1.59    2.92
   3   6  -4   -1.59    2.03
  -3   6   4   -2.49    2.01
  -3   6   4    9.36    9.30
   3  -6   4   -1.50    2.06
  -3  -6  -4    6.36   13.63
   3   6  -4    8.19    8.13
  -3   6   4    1.70    3.66
   3  -6   4   -1.35   10.35
  -3   7  -4   32.45    5.02
  -3   7  -4   24.53    4.18
   3   7   4   30.13    4.95
   3   7   4   25.54    4.12
   3   7   4   31.75    5.40
  -3  -7   4   34.09    6.03
   3   7  -4   35.43    5.01
  -3   7   4   21.10    3.90
  -3   7   4   32.91    4.59
   3   7  -4   30.54    4.61
   3  -7   4   18.69    3.77
   3   7  -4   27.11    3.97
   3  -7   4   29.12    5.42
   3   8   4    1.03    1.61
   3  -8  -4    0.76    1.63
   3   8   4    1.89    1.76
  -3  -8   4    0.11    2.44
  -3   8  -4    1.43    1.52
   3   8   4    4.81    2.20
   3   8  -4    0.64    1.61
  -3   8   4    4.83    2.02
   3   8  -4    2.27    1.53
   3  -8   4    1.21    2.61
  -3   8   4    2.02    1.54
   3   9   4   15.21    1.88
   3   9   4   22.35    2.31
   3  -9  -4   25.88    3.58
   4   0   4  154.06   11.86
   4   0  -4  165.30   12.42
  -4   0   4  172.31   12.35
  -4   1  -4    3.56    4.17
  -4  -1   4   -0.93    2.33
   4  -1  -4    0.08    2.66
   4   1   4    0.85    2.54
   4  -1   4   -0.98    2.59
   4   1  -4    5.13    3.03
  -4  -2   4  106.83    9.92
   4  -2  -4   91.29   10.99
  -4   2  -4  111.95   12.91
  -4  -2   4  110.01    9.50
   4   2  -4  108.67    9.65
   4   2  -4  111.49    8.37
  -4   2   4  100.67    7.87
   4  -2   4  118.20   11.54
   4   2  -4  111.78    8.33
  -4   2   4  111.30    9.81
   4  -2   4  105.14    9.94
   4  -2   4  116.61    9.84
   4  -2   4  103.56   13.59
   4  -2   4  107.88    9.45
   4   2  -4  118.40   10.31
  -4  -3   4   16.58    4.57
  -4  -3   4   23.06    6.29
   4   3   4    9.26    2.83
   4  -3  -4   17.43    4.10
   4   3   4   22.18    3.26
   4   3   4   18.26    5.09
   4   3   4   14.11    5.35
   4   3   4   19.48    3.85
  -4   3  -4   16.37    7.32
   4   3   4   14.63    3.60
   4   3  -4   15.34    2.53
   4  -3   4   17.49    3.77
   4  -3   4    8.88    5.59
  -4   3   4   15.96    2.50
   4   3  -4   18.18    2.80
   4  -3   4   15.68    5.04
   4   3  -4   15.63    3.95
   4   3  -4   20.57    4.03
   4  -3   4   12.62    4.97
   4  -3   4   12.26    3.37
   4   3  -4   15.99    4.57
   4   3  -4   24.11    4.45
   4   4   4  160.36   11.97
   4   4   4  168.54   12.37
   4  -4  -4  173.12   13.99
   4   4   4  150.57   11.65
  -4  -4   4  177.68   15.77
  -4  -4   4  139.07   20.37
  -4   4  -4  151.70   19.25
  -4   4  -4  176.51   12.80
   4   4   4  140.91   12.48
   4  -4   4  186.32   16.02
   4   4  -4  178.76   15.85
   4   4  -4  181.64   13.78
   4   4  -4  194.41   11.91
  -4   4   4  155.47   12.65
   4   4  -4  171.71   12.03
  -4   4   4  159.30   14.80
   4  -4   4  143.49   15.83
   4  -4   4  161.32   16.24
   4   5   4   17.11    3.44
   4   5   4   12.51    8.15
   4  -5  -4   10.69    3.93
   4   5   4   18.95    2.90
  -4   5  -4    9.54    3.22
  -4  -5   4    6.33    8.12
  -4  -5   4   14.77    5.02
   4   5   4   15.98    3.10
   4   5   4   18.94    3.60
  -4   5  -4   11.08   10.30
  -4   5   4   13.55    7.00
   4   5  -4   12.81    2.83
  -4  -5  -4   16.58   12.68
   4  -5   4   12.52    3.59
  -4   5   4   10.59    2.30
   4   5  -4   13.11    2.82
  -4   5   4    9.67    3.16
   4  -5   4   14.11    2.69
   4   5  -4   16.17    3.42
   4   5  -4   10.42    6.07
   4   5  -4   19.74    2.88
   4  -6  -4   37.95    7.69
   4   6   4   38.32    5.36
  -4  -6   4   42.37    7.70
   4   6   4   18.64   12.06
  -4   6  -4   26.84   14.60
  -4  -6   4   14.05   12.53
   4   6   4   41.36    4.33
  -4   6  -4   47.99    5.30
   4   6   4   28.64    4.35
   4   6   4   30.80    5.36
   4   6  -4   42.36    4.89
  -4   6   4   34.36    4.52
   4   6  -4   37.39    5.16
   4  -6   4   35.80    4.54
   4   6  -4   34.61    4.66
  -4  -6  -4   51.05   18.01
   4   6  -4   22.87    9.65
   4  -6   4   33.64    6.09
  -4   6   4   30.09    5.19
   4   6  -4   42.37    4.41
  -4   6   4   19.21   10.38
   4   7   4    2.06    2.11
  -4   7  -4    0.49    2.20
   4  -7  -4    2.12    2.23
  -4   7  -4    0.45    2.02
   4   7   4    1.61    2.03
   4   7   4    0.03    2.26
   4   7   4   -2.17    2.17
  -4   7   4   -0.99    2.26
   4   7  -4    0.81    1.71
  -4   7   4    0.94    1.77
   4  -7   4    0.85    2.62
   4   7  -4    3.65    1.91
   4   7  -4    2.10    2.19
   4  -7   4    0.10    1.99
   4   8   4   20.01    2.80
  -4   8  -4   16.78    3.41
   4   8  -4   23.86    2.57
  -4   8   4   14.87    2.51
   4  -8   4   17.08    3.25
   4   8  -4   19.68    2.47
   5   0  -4   -0.16    4.00
   5   0   4    0.75    2.68
   5   0   4    0.72    2.46
   5   0   4   -0.08    2.98
   5   0  -4    3.61    2.98
   5   0  -4   -4.83    2.52
   5   0   4    5.76    4.46
   5   0  -4   -0.47    3.57
   5   0   4    0.11    4.19
   5   0  -4   -0.79    2.43
  -5   0   4    3.79    3.16
   5  -1  -4  165.01   13.28
   5  -1  -4  121.56   12.70
   5   1   4  149.41   11.76
   5  -1  -4  146.87   11.50
   5   1   4  143.52   11.52
  -5   1  -4  165.16   17.51
   5  -1  -4  150.18   12.51
   5   1   4  150.31   10.95
   5   1   4  148.07   12.76
  -5  -1   4  153.10   12.44
   5   1   4  134.82   13.66
   5  -1   4  147.91   11.80
   5  -1   4  157.96   13.18
   5   1  -4  170.54   10.82
   5   1  -4  173.30   10.99
   5  -1   4  152.64   11.06
  -5   1   4  151.08   12.82
   5   1  -4  162.44   11.12
   5  -1   4  144.31   11.80
   5   1  -4  150.52   11.52
   5   1  -4  165.62   13.01
   5  -1   4  154.81   14.13
   5   2   4   19.53    3.69
   5  -2  -4   10.48    3.52
  -5   2  -4   17.73    7.15
  -5  -2   4   11.95    4.05
   5   2   4   12.12    2.48
   5   2   4   11.24    4.31
   5  -2  -4   11.95    2.83
   5  -2  -4    9.76    3.33
   5   2   4   11.61    3.73
   5   2  -4   11.93    4.19
   5   2  -4   15.52    2.62
  -5   2   4   23.01    4.99
   5  -2   4   10.65    5.59
  -5   2   4    8.78    1.95
   5   2  -4   10.63    2.87
   5  -2   4    9.83    3.09
   5  -2   4    8.36    3.90
   5   2  -4   13.15    2.41
   5   2  -4   10.84    2.50
   5  -2   4    7.53    3.43
   5   3   4  174.11   12.75
   5   3   4  168.17   14.13
  -5   3  -4  158.35   20.81
   5  -3  -4  174.03   17.90
  -5  -3   4  181.62   15.83
   5   3  -4  194.54   12.69
  -5   3   4  178.48   15.62
   5  -3   4  202.80   14.94
   5   3  -4  195.53   13.79
   5  -3   4  190.17   18.88
   5   3  -4  186.47   16.07
  -5   4  -4   23.68    3.87
   5   4   4   27.89    5.22
   5   4   4   17.48    2.65
   5  -4  -4   18.55    3.88
   5  -4   4   21.33    4.17
   5   4  -4   19.74    3.63
   5  -4   4   30.68    6.27
   5   4  -4   26.26    4.05
   5  -4   4   15.87    5.15
   5   4  -4   18.79    3.82
  -5   4   4   20.68    3.43
  -5   4   4   16.89    3.38
   5   4  -4   13.38    8.63
  -5   4   4    6.55    8.16
   5   4  -4   23.40    3.66
   5  -4   4   18.19    3.99
  -5   5  -4   44.25   14.57
   5  -5  -4   62.98    6.42
   5   5   4   47.64    5.49
   5   5   4   51.74    7.05
  -5   5  -4   53.23    6.58
   5  -5  -4   66.27    7.69
   5   5   4   51.44    5.20
   5   5   4   56.73    6.28
   5   5  -4   63.94    5.73
  -5   5   4   55.55    6.40
   5   5  -4   61.61    5.36
  -5   5   4   63.51   10.32
  -5   5   4   60.58    5.41
   5   5  -4   47.47    9.14
   5  -5   4   58.36    6.87
   5   5  -4   67.13    5.70
   5  -6  -4   13.59    3.17
  -5   6  -4   11.11    2.92
   5   6   4   14.29    2.43
   5   6   4   14.32    2.38
   5   6   4   12.81    3.21
   5   6   4   12.94    2.91
   5  -6  -4   12.81    3.56
   5   6  -4   11.02    2.49
  -5   6   4   10.53    2.87
   5   6  -4   14.95    2.79
   5   7   4   21.89    3.61
  -5   7  -4   22.51    3.52
  -5   7  -4   20.08    3.79
   5   7   4   27.28    3.53
   5   7   4   25.82    2.97
   5  -7  -4   23.38    3.35
  -5   7   4   17.82    3.69
   5   7  -4   26.32    3.13
   5  -7   4   27.77    4.01
   5   7  -4   25.85    3.27
  -5   7   4   26.86    3.28
   5   7  -4   32.85    3.35
  -5   8  -4    1.92    1.51
   5   8   4   -0.04    1.19
   5   8   4    0.58    1.21
   5  -8  -4    0.89    1.57
   5   8  -4    2.86    1.24
   5  -8   4    1.49    1.93
   6   0  -4   70.78    8.60
   6   0   4   51.71    5.53
   6   0  -4   66.57    9.31
   6   0  -4   76.95    6.47
  -6   0   4   62.59    9.36
   6   0  -4   66.43    6.10
   6   0   4   50.97    6.79
  -6  -1   4   29.81    5.38
  -6  -1   4   24.48    4.08
   6   1   4   23.29    5.03
   6   1   4   19.52    3.71
   6   1   4   13.48    4.87
   6  -1  -4   26.74    5.52
   6  -1  -4   15.66    4.27
  -6   1  -4   27.05   10.61
   6  -1  -4   23.38    4.60
   6  -1   4   18.85    3.47
   6  -1   4   32.11    6.04
   6  -1   4   26.54    4.98
   6   1  -4   23.03    5.92
   6  -1   4   27.05    4.69
   6   1  -4   20.68    3.56
   6   1  -4   21.85    3.42
   6   1  -4   29.35    4.59
  -6   1   4   32.42    6.43
   6  -1   4   31.97    4.03
   6   1  -4   26.28    3.81
   6   2   4   34.55    4.15
   6   2   4   33.32    5.71
   6   2   4   27.13    4.52
   6   2   4   38.02    7.62
   6  -2  -4   44.33    5.65
  -6  -2   4   34.26    6.60
   6  -2  -4   39.08    6.79
   6   2  -4   43.24    5.59
   6   2  -4   38.68    4.40
   6   2  -4   34.66    4.40
   6  -2   4   31.38    5.23
   6  -2   4   30.16    6.33
   6   2  -4   34.23    4.14
  -6   2   4   35.36    3.98
  -6   2   4   45.90    7.08
   6  -2   4   31.66    5.71
   6   2  -4   42.14    7.51
   6  -2   4   36.59    6.00
  -6   3  -4   22.53   12.71
  -6  -3   4   24.95    7.28
   6   3   4   11.46    2.76
   6  -3  -4    5.66    3.09
   6  -3  -4    3.55    4.63
   6   3   4   11.34    3.34
   6   3   4    9.46    2.07
   6   3   4    9.84    4.09
   6  -3   4    5.25    2.68
   6   3  -4    5.78    1.81
   6  -3   4    5.09    3.15
   6   3  -4   10.48    2.38
   6   3  -4   10.72    2.50
   6   3  -4   10.73    2.89
   6  -3   4    8.43    4.19
   6   3  -4   12.27    6.61
   6  -3   4    7.46    3.66
  -6   3   4   12.13    2.12
  -6   3   4   12.81    6.49
  -6  -4   4   28.84    9.62
   6   4   4   24.48    3.89
   6  -4  -4   32.20    4.45
   6   4   4   30.47    6.28
   6  -4  -4   21.56    4.25
  -6   4  -4   26.23    5.34
  -6   4  -4   13.86   15.37
   6   4   4   26.06    4.08
  -6   4   4   32.47    4.00
  -6   4   4   30.40    5.05
   6  -4   4   32.46    5.54
   6   4  -4   38.26    4.31
   6  -4   4   40.37    5.68
   6   4  -4   33.49    4.04
   6   4  -4   30.32   10.29
   6  -4   4   41.30    7.60
  -6   4   4   19.81    7.58
   6   4  -4   29.31    4.08
   6   4  -4   31.93    5.71
   6  -4   4   34.15    5.96
   6   5   4   14.03    2.86
   6   5   4   15.02    3.21
  -6   5  -4    7.18    2.95
   6  -5  -4   18.51    4.73
   6   5   4   13.86    2.49
   6  -5  -4   13.40    3.26
   6   5  -4   13.16    2.35
  -6   5   4    9.07    2.21
   6   5  -4   13.90    2.44
   6  -5   4    8.98    6.08
   6   5  -4   12.92    2.28
   6  -5   4   13.81    3.16
  -6   5   4   17.01    4.19
   6   6   4   11.26    2.19
   6  -6  -4    9.30    3.05
   6   6   4   19.12    3.63
   6  -6  -4    9.71    2.41
  -6   6  -4    7.88    2.12
  -6   6  -4    9.48    2.61
   6   6   4   12.96    2.08
   6   6  -4   14.30    2.56
  -6   6   4   16.45    3.02
   6   6  -4   12.21    2.19
  -6   6   4   11.30    2.35
   6   6  -4   15.28    2.93
   6   7   4    2.27    1.36
   6   7   4    0.79    1.84
   6  -7  -4   -0.98    1.82
  -6   7  -4    2.77    1.90
   6   7  -4    1.94    1.50
  -6   7   4    4.79    1.54
   6   7  -4    0.42    1.40
   6  -7   4   -1.74    1.56
   6   7  -4    1.15    1.78
   7   0   4    1.04    1.74
   7   0  -4    3.79    3.56
   7   0  -4   -9.47    7.52
   7   0  -4   -2.70    2.32
   7   0   4   -0.01    2.51
   7   0   4   -2.18    3.59
  -7   0   4   -1.64    6.25
   7   0  -4    0.17    2.16
   7   0   4    2.73    3.64
   7   0  -4   -1.55    1.79
   7  -1  -4   58.51    5.88
   7  -1  -4   62.25    5.39
   7   1   4   40.16    8.15
   7   1   4   53.44    4.94
   7   1   4   41.36    6.13
   7   1   4   48.83    7.66
   7  -1  -4   52.99    7.54
  -7   1  -4   79.45   16.91
  -7  -1   4   69.90    9.31
   7  -1  -4   48.10    6.80
   7  -1   4   50.00    5.18
   7  -1   4   46.86    6.47
   7  -1   4   57.57    8.52
  -7   1   4   49.39    7.83
   7   1  -4   61.53    9.13
   7  -1   4   47.69    5.99
   7   1  -4   55.62    5.98
   7   1  -4   60.86    5.58
   7  -1   4   47.56    7.41
   7   1  -4   56.67    5.12
   7   2   4    3.20    1.86
   7   2   4    2.29    3.76
   7  -2  -4    5.30    3.44
  -7   2  -4   23.39   15.85
   7   2   4   -2.94    3.23
   7  -2  -4    0.08    2.44
  -7  -2   4    5.68    2.33
  -7  -2   4    0.12    7.33
   7   2   4    1.07    2.54
   7  -2   4    7.92    3.95
  -7   2   4    5.76    6.60
   7   2  -4    3.67    8.61
   7   2  -4    2.57    1.84
   7  -2   4    1.03    3.69
  -7   2   4    3.67    1.53
   7   2  -4    5.95    2.03
   7  -2   4    0.83    2.41
   7   2  -4    7.08    2.57
   7   2  -4    2.20    1.78
   7  -2   4    2.39    3.01
  -7  -3   4   41.99    9.61
   7  -3  -4   26.98    4.73
   7  -3  -4   32.57    6.12
   7   3   4   36.77    4.00
  -7   3  -4   56.52   20.08
   7   3   4   44.48    7.03
   7   3   4   36.12    5.52
   7   3  -4   40.72    5.43
   7   3  -4   56.86    9.69
  -7   3   4   29.07    9.55
  -7   3   4   37.50    4.17
   7  -3   4   38.10    7.73
   7   3  -4   43.29    4.74
   7  -3   4   41.80    5.65
   7   3  -4   41.62    4.18
   7  -3   4   27.46    5.40
   7  -3   4   39.02    6.69
   7   3  -4   42.40    4.38
  -7   4  -4   15.77    4.24
   7   4   4   18.49    3.42
   7   4   4   14.48    2.12
   7  -4  -4   10.59    3.30
   7   4   4    9.78    3.04
   7  -4   4   20.58    4.49
  -7   4   4   13.72    2.78
   7   4  -4   13.85    2.40
   7  -4   4   11.36    4.86
   7   4  -4   10.19    2.38
   7   4  -4    8.26    3.23
   7   4  -4   10.30    3.39
   7   5   4   19.11    3.03
   7  -5  -4   16.62    3.15
   7   5   4   15.55    2.25
  -7   5  -4   25.33    4.48
   7   5  -4   24.22    3.52
   7  -5   4   18.15    3.17
   7   5  -4   21.77    2.95
  -7   5   4   22.42    3.09
   7  -5   4   17.57    3.34
   7   5  -4   22.06    3.11
  -7   5   4   27.17    3.88
   7   6   4    5.55    1.60
  -7   6  -4   -0.37    1.98
   7  -6  -4    6.38    2.64
   7  -6  -4    3.14    2.66
   7  -6   4    5.83    1.99
  -7   6   4   -0.66    1.88
   7   6  -4    4.47    1.22
   7   6  -4    3.16    1.42
   7   6  -4    1.96    1.34
   7  -7   4    6.92    1.71
   8   0   4   12.84    2.91
   8   0  -4   15.92    2.89
   8   0  -4   16.55    3.06
  -8   0   4   24.29   14.14
   8   0   4   12.81    2.31
  -8   0  -4  -17.22   21.23
   8   0  -4   17.24    3.32
   8   0   4   14.56    3.90
   8   0   4   16.52    4.13
   8   0  -4   22.32    3.82
   8  -1  -4    0.71    2.21
   8   1   4   -0.97    2.04
   8  -1  -4    1.25    1.86
   8   1   4   -5.52    3.06
   8  -1  -4   -2.19    2.66
   8   1   4    2.29    3.04
   8   1   4   -1.65    1.55
   8   1  -4    1.15    1.90
   8   1  -4    1.48    2.20
  -8   1   4    0.15    1.46
   8   1  -4    0.08    2.01
   8  -1   4   -0.04    3.22
   8  -1   4   -1.18    2.27
   8  -1   4    1.29    2.94
   8   2   4   27.19    4.69
   8   2   4   32.09    6.02
   8  -2  -4   25.73    5.37
   8   2   4   53.23   10.61
   8   2   4   29.58    5.15
   8  -2  -4   29.97    5.19
   8   2  -4   30.30    5.90
   8  -2   4   37.46    6.15
   8  -2   4   39.16    5.58
   8  -2   4   43.19    6.88
   8   2  -4   46.71    6.39
   8  -2   4   33.79    5.12
   8   3   4   -1.10    3.17
   8  -3  -4   -0.59    3.65
   8  -3  -4    0.55    2.33
   8   3   4    1.44    1.61
   8   3   4    2.32    2.39
   8  -3   4    5.52    2.61
   8  -3   4    1.08    2.60
  -8   3   4    3.50    1.68
   8   3  -4    3.55    1.69
   8  -3   4    1.96    1.88
   8   3  -4    1.80    1.79
   8   3  -4    1.77    2.25
   8  -3   4   -2.60    3.03
  -8   4  -4   10.54    2.79
   8   4   4   10.17    1.95
  -8  -4   4   12.57    2.51
   8  -4  -4   12.73    2.75
   8   4   4   15.19    3.01
  -8   4   4    9.51    2.34
   8   4  -4    9.28    1.72
   8  -4   4   20.77    4.58
   8  -4   4    6.09    2.70
  -8   4   4   14.49    2.13
   8   4  -4   13.09    2.40
   8   4  -4   11.57    2.61
   8  -4   4   19.01    3.57
   8  -5  -4    5.75    1.90
  -8  -5   4   -0.35    2.43
  -8   5  -4    2.68    3.43
   8  -5   4    3.34    2.43
  -8   5   4    2.97    1.48
  -8   5   4    2.93    2.06
   8  -5   4    0.41    2.57
   8   5  -4    0.56    1.38
   8   6  -4    1.63    1.22
   9   0   4   -0.97    2.55
   9   0  -4    1.69    2.02
   9   0   4    1.31    2.01
   9   0   4   -1.98    2.56
  -9   0   4   -1.33    1.21
   9   0  -4   -3.70    3.31
   9   0  -4    1.70    2.43
   9   1   4    4.06    2.86
   9   1   4    4.94    1.56
   9  -1  -4    5.26    2.66
   9   1   4    3.38    2.01
   9   1   4    4.41    2.91
   9  -1  -4    5.00    2.19
   9   1  -4    6.40    2.23
   9  -1   4    5.22    2.47
   9   1  -4    5.01    2.33
   9   1  -4    6.10    2.19
  -9   1   4    5.95    1.59
   9  -1   4    0.75    1.93
   9  -1   4   11.79    3.04
   9  -2  -4    2.17    2.33
   9   2   4   -0.16    1.48
   9  -2  -4    3.76    2.35
   9   2   4    1.48    2.60
   9   2  -4    3.17    1.73
   9   2  -4    2.07    1.82
   9  -2   4    3.15    2.32
   9  -2   4    1.90    2.56
   9  -2   4    0.50    2.18
   9   2  -4    2.34    1.48
  -9   2   4    1.94    1.42
   9   3   4    5.90    1.75
   9   3   4    4.80    2.43
   9  -3  -4    2.31    1.76
   9   3   4   -2.18    3.38
  -9   3  -4    2.60    2.28
   9  -3   4    8.32    2.57
  -9   3   4    6.80    2.61
   9   3  -4    5.63    1.65
   9  -3   4    4.34    2.11
   9   3  -4    6.59    1.62
   9   3  -4    7.03    2.05
   9  -4  -4    4.14    1.93
  -9   4  -4    4.82    2.33
   9   4  -4    5.47    1.23
  -9   4   4    1.45    1.64
   9  -4   4    5.56    1.74
   9   4  -4    1.27    1.52
  10   0   4    4.63    2.48
  10   0   4    6.76    2.20
  10   0   4    4.37    2.36
 -10   0   4    5.68    1.30
  10   0  -4    9.05    1.90
 -10  -1   4    6.02    1.46
  10   1   4    6.28    1.56
  10   1   4    3.15    1.98
 -10   1  -4    8.76    3.39
  10  -1   4    3.17    1.48
 -10   1   4    6.78    1.54
  10   1  -4    4.65    1.86
  10  -1   4    6.44    1.97
  10  -1   4    3.54    1.89
  10  -2  -4   -2.71    2.29
 -10  -2   4    2.45    1.02
  10   2   4    3.30    1.71
  10   2  -4    0.76    1.53
  10  -2   4    2.60    2.07
  10  -2   4    3.40    1.71
   0   0  -5    0.67    2.22
   0   0   5    0.65    1.47
   0   0   5    4.29    2.67
   0   0  -5   -0.79    2.60
   0   0   5    1.36    1.72
   0   1   5  529.35   35.65
   0  -1   5  515.04   35.10
   0  -1   5  520.06   36.12
   0   1  -5  578.50   35.93
   0   1   5  592.45   35.70
   0  -1   5  556.29   35.87
   0   1   5  517.49   35.61
   0  -1  -5  592.34   35.49
   0  -2   5    2.18    2.66
   0   2   5   -2.40    1.77
   0   2   5    0.01    2.60
   0   2  -5    1.21    3.78
   0   2  -5   -5.63    4.54
   0   3  -5   -1.34    4.27
   0   3   5    4.41    2.61
   0  -3   5   -1.43    3.80
   0   3   5    1.23    4.19
   0   4   5    1.53    2.93
   0   4   5    0.20    2.36
   0   4   5    0.17    2.60
   0  -4   5   -1.44    2.98
   0   4  -5   -1.83    5.03
   0  -4   5   -5.03    6.22
   0   4  -5   -1.31    2.15
   0   4   5   -0.32    1.78
   0   4   5   -2.85    4.41
   0  -5   5   -3.22    4.80
   0   5  -5   -3.16    3.06
   0   5  -5   -7.53    6.40
   0   5   5   -0.35    6.22
   0  -5   5    6.53    8.51
   0  -6  -5   -2.36   10.80
   0   6   5   -0.46    2.07
   0  -6   5    0.15    2.59
   0   6  -5    6.95    8.84
   0   6   5   -3.29    9.04
   0   6   5   -2.79    2.42
   0   6  -5    2.79    2.46
   0   6   5    2.24    2.28
   0   6  -5   -0.30    2.61
   0   6   5    1.34    2.73
   0  -6   5   -3.58   12.92
   0   7   5   27.36    4.47
   0   7  -5   26.65    4.14
   0   7  -5   22.50    4.24
   0   7   5   23.44    4.13
   0  -7   5   23.94    4.42
   0   8   5    0.82    1.52
   0  -8   5   -2.02    1.63
   0   8   5    1.07    1.81
   0   8   5   -0.70    1.81
   0   8  -5    2.80    1.83
   0   8  -5    0.78    1.58
   0  -9   5    0.09    1.29
   0   9   5   -0.17    1.34
  -1   0  -5   -0.21    1.90
   1   0  -5   -1.15    2.31
  -1   0   5   -0.78    3.20
  -1   0  -5   -1.20    3.14
   1   0   5   -0.68    2.25
   1   0   5   -3.26    2.03
   1   0  -5   -0.43    2.39
   1   0   5    0.16    1.60
  -1   0   5   -0.25    1.97
  -1   0   5    1.90    1.53
  -1  -1   5   73.29    6.12
   1  -1  -5   79.02    5.88
  -1   1  -5   87.74    7.34
   1   1   5   70.68    6.39
  -1   1  -5   62.32    8.46
  -1  -1   5   79.94    8.29
   1   1   5   76.74    6.20
  -1  -1   5   87.16    6.73
   1   1   5   71.66    6.57
  -1   1   5   79.03    6.18
  -1   1   5   63.54    6.58
   1  -1   5   80.78    6.77
  -1   1   5   80.54    7.53
   1   1  -5   66.91    7.45
  -1  -1  -5   84.86    6.05
   1   1  -5   75.32    7.06
  -1   2  -5   91.18   10.45
   1   2   5  114.58    8.31
  -1  -2   5  116.26   11.10
  -1  -2   5  102.60    9.01
   1   2   5  102.84    8.31
  -1  -2   5  105.33    8.09
   1   2   5   98.25    8.86
  -1   2   5  104.28    8.26
   1   2  -5  113.61   10.57
   1   2  -5   99.83   10.15
   1  -2   5  107.36    9.16
  -1   2   5   98.45    8.88
  -1   3  -5    3.63    4.66
   1   3   5    3.09    2.33
  -1  -3   5    2.98    3.46
  -1  -3   5    5.08    3.75
   1  -3   5    2.00    4.14
   1   3  -5    4.10    3.90
  -1   3   5    3.40    2.47
  -1   3   5    9.01    3.95
  -1  -4   5   17.65    3.98
  -1   4  -5   21.59    5.10
   1   4   5   15.07    3.03
   1   4   5   18.91    3.72
   1   4   5   20.37    4.02
   1   4   5   18.13    5.23
   1   4   5   19.88    3.04
  -1  -4   5   16.06    6.44
   1  -4   5   11.77    3.55
  -1   4   5   18.86    2.92
   1  -4   5   15.91    6.00
   1  -4   5   26.51   10.26
   1   4  -5   22.93    6.09
  -1   4   5   18.53    3.97
   1   4  -5   12.29    2.64
  -1   4   5   18.56    3.31
  -1   4   5   17.82    4.95
   1   4  -5   16.07    3.95
  -1   4   5   20.90    3.49
   1  -4   5    6.72    6.25
  -1   5  -5   14.70    3.93
  -1   5  -5    9.62    2.87
  -1   5  -5   12.84    8.07
   1   5   5   20.41    7.29
   1   5   5   13.19    2.84
  -1  -5   5   -1.90    9.39
   1   5   5   15.38    3.20
   1   5   5   14.12    3.22
  -1  -5   5    5.51    3.41
   1   5  -5   15.37    6.88
   1  -5   5   12.14    5.64
  -1   5   5   11.91    2.92
   1  -5   5   15.50    8.53
  -1   5   5   12.81    6.56
   1   5  -5    9.98    2.94
  -1   5   5    8.09    3.39
   1  -5   5    7.40    3.24
   1   5  -5   18.21    3.80
   1   6   5   11.19    3.52
  -1   6  -5    7.15    3.11
   1   6   5   12.68    2.90
   1   6   5   22.95   10.33
  -1  -6   5    3.26    2.93
   1  -6  -5   27.29   13.31
   1   6   5    3.51    2.54
  -1   6  -5    6.15    2.62
   1   6  -5    7.84    2.87
   1   6  -5    2.36    9.82
  -1   6   5   11.15    2.88
   1   6  -5    6.36    2.65
  -1   6   5    6.25    2.25
   1  -6   5    7.64    2.81
  -1  -6  -5   20.87   12.99
  -1   6   5   21.16   10.33
  -1   6   5    9.36    2.42
   1  -6   5    0.01   11.68
   1  -6   5    3.18    5.73
   1   7   5    4.07    2.52
  -1   7  -5    5.79    2.25
   1   7   5    2.03    2.18
  -1  -7   5    9.16    2.67
   1   7   5    3.36    2.16
  -1   7  -5    5.76    3.06
  -1   7   5    7.04    2.47
  -1   7   5    6.71    2.23
  -1   7   5    5.44    2.22
   1   7  -5   10.00    2.80
   1   7  -5    4.91    2.15
   1  -7   5    1.23    2.11
   1   8   5   -0.45    1.55
   1  -8  -5    3.35    2.15
  -1   8  -5    0.48    1.62
  -1  -8   5   -2.19    1.52
   1   8   5    2.46    1.83
  -1   8  -5    1.12    1.58
   1   8  -5   -0.76    1.48
   1  -8   5   -0.73    1.46
  -1   8   5    1.12    2.09
   1   8  -5   -0.14    1.50
  -1   8   5    0.09    1.52
  -1   8   5   -0.63    1.90
   1   9   5    2.09    1.51
  -1  -9   5    0.83    1.35
   1   9   5    0.55    1.09
   1  -9   5   -0.47    1.27
  -1   9   5   -0.11    0.80
   2   0   5   84.31    7.21
   2   0  -5   99.82    8.09
   2   0  -5   86.26    7.38
  -2   0  -5   73.40    9.25
   2   0   5   89.54    7.19
  -2   0   5   88.23    7.29
  -2   0  -5   91.74    7.24
  -2   0   5   72.82    9.16
  -2   0   5   86.10    6.76
   2   1   5    2.01    1.77
   2   1   5    3.06    1.78
  -2  -1   5    5.87    1.96
  -2  -1   5    2.26    4.38
  -2  -1   5    2.30    1.90
  -2   1  -5   -1.18    4.34
   2   1   5    0.22    2.47
   2  -1  -5    2.30    2.17
   2   1  -5   -2.23    2.59
  -2  -1  -5   -3.92    3.85
  -2   1   5    1.88    3.47
   2  -1   5    0.42    2.06
  -2   1   5    2.20    1.65
   2   1  -5    4.80    3.55
  -2   1   5    1.16    2.26
  -2  -2   5  114.47    9.92
  -2  -2   5  116.97   13.88
   2   2   5  122.23   10.06
  -2  -2   5  126.39    9.59
   2   2  -5  107.65   10.84
  -2   2   5  115.67    9.27
   2   2  -5  120.79   11.88
  -2   2   5  121.70   10.61
   2  -2   5  128.11   10.59
  -2  -2  -5  125.25   12.27
   2   3   5   14.57    4.09
  -2   3  -5   10.98    5.25
   2   3   5   11.34    3.36
  -2  -3   5   12.80    4.01
   2   3   5   11.30    2.78
   2   3   5    9.18    2.67
  -2  -3   5   12.48    3.88
   2   3   5   14.52    2.84
  -2   3   5   12.37    2.28
  -2   3   5   19.91    4.31
   2  -3   5   15.98    3.94
  -2   3   5   11.87    3.16
  -2   3   5    7.67    3.94
   2  -3   5   15.61    3.20
   2   3  -5   11.75    4.30
   2   3  -5    9.11    2.70
   2  -3   5    5.23    3.94
  -2   3   5   10.94    2.18
   2   4   5   96.83    7.65
   2   4   5   85.75    7.23
   2   4   5   66.47   10.58
   2   4   5   73.68    7.15
  -2  -4   5   64.92    8.30
  -2   4  -5   83.58    9.34
  -2  -4   5   79.33   14.01
   2   4   5   79.48    7.31
  -2   4  -5   72.90   13.07
   2  -4   5   81.08    9.81
   2   4  -5   88.84    7.68
  -2   4   5   88.65    6.82
   2  -4   5   80.35    7.51
  -2   4   5   89.55    6.66
   2  -4   5   64.28   12.08
   2   4  -5   82.93   10.95
   2   4  -5   74.89    7.07
   2  -4   5   70.28   12.51
   2   4  -5   86.29   11.75
  -2   4   5   76.86    8.36
  -2   4   5   97.52   10.43
  -2   4   5   84.45    8.03
   2   5   5   62.99    5.96
  -2   5  -5   48.34   10.61
  -2  -5   5   40.18    7.50
   2   5   5   65.73   12.35
   2   5   5   51.88    5.92
   2  -5  -5   54.63    8.52
   2   5   5   45.61    5.89
   2   5   5   46.88    6.55
  -2  -5   5   44.53   11.68
  -2   5  -5   63.35    8.07
  -2   5   5   46.91    7.30
  -2   5   5   52.39    6.54
   2  -5   5   48.68    6.11
   2   5  -5   65.37   12.67
   2   5  -5   66.73    6.01
  -2   5   5   55.26   11.07
   2  -5   5   57.76    8.49
  -2   5   5   54.25    5.35
  -2   5   5   58.13    5.45
   2  -5   5   51.27    9.68
   2   5  -5   55.70    6.13
   2   6   5   12.44    2.95
  -2  -6   5   36.91   14.96
   2   6   5   14.86    3.26
  -2   6  -5   13.49    3.51
  -2   6  -5   23.24   12.02
   2  -6  -5   26.06   16.71
   2   6   5   11.75    3.50
   2   6   5   13.19    3.07
  -2  -6   5   16.87    3.98
   2   6   5   29.33   10.62
   2  -6   5   10.79    4.62
  -2  -6  -5   14.24   13.35
   2   6  -5   16.86    3.11
  -2   6   5   13.20    2.56
  -2   6   5   11.92    3.16
   2  -6   5   11.26    2.71
   2   6  -5   16.57    3.02
  -2   6   5   33.07    9.48
  -2   6   5   16.06    2.98
   2   6  -5   17.44    8.43
   2  -6   5   14.56   10.71
  -2   7  -5   -1.32    1.97
  -2   7  -5    2.91    2.60
   2   7   5    2.85    2.68
  -2  -7   5    0.24    3.29
   2   7   5   -1.87    2.59
  -2   7   5    5.31    2.62
   2   7  -5   -0.87    2.01
  -2   7   5   -1.82    2.31
   2  -7   5    0.92    1.96
   2   7  -5    2.20    2.88
   2  -7   5    1.58    3.99
   2   8   5    4.97    1.85
   2  -8  -5    4.37    2.10
  -2  -8   5    9.26    2.32
  -2   8  -5    4.08    1.75
   2   8   5    5.58    1.84
   2   8   5    7.59    1.65
  -2   8  -5    8.41    2.01
   2  -8   5    8.01    1.73
   2   8  -5    7.93    1.65
   2   8  -5    8.14    1.68
  -2   8   5    5.49    1.71
   2   9   5   13.37    1.91
   2   9   5   13.42    2.38
  -2   9   5   19.07    2.54
  -3   0   5    1.32    2.58
  -3   0   5    2.57    1.96
  -3   0  -5   -2.07    4.25
   3   0  -5    5.90    4.23
   3   0  -5    0.55    2.29
   3   0   5    2.71    2.17
  -3  -1   5   25.76    7.81
   3  -1  -5   43.62    5.23
  -3   1  -5   22.82    6.39
  -3  -1   5   34.44    4.86
   3   1   5   36.47    4.73
  -3  -1   5   40.04    4.79
  -3   1   5   43.46    4.82
   3   1  -5   35.74    5.76
  -3   1   5   33.35    5.39
   3   1  -5   26.83    5.38
   3  -1   5   33.04    4.99
   3   2   5    4.03    2.61
  -3   2  -5    5.59    5.85
  -3  -2   5    4.39    2.61
  -3  -2   5    1.59    2.84
   3   2   5    2.59    3.64
   3  -2   5    4.28    3.81
  -3   2   5    2.29    1.82
  -3   2   5    5.37    3.03
   3   2  -5    5.18    4.15
   3  -2   5    6.05    3.02
   3   2  -5    3.68    3.77
   3  -2   5    2.89    3.08
  -3   2   5   -1.33    2.85
   3   3   5   17.83    4.76
  -3  -3   5    6.67    3.51
   3   3   5    5.91    3.64
   3   3   5    8.27    3.72
   3   3   5    5.14    2.79
   3   3   5    1.60    3.55
   3   3   5   11.49    3.23
  -3   3  -5   11.32    7.81
  -3  -3   5    3.85    4.34
  -3  -3   5    8.40    4.03
   3   3   5   10.53    2.75
   3   3  -5   11.89    4.25
   3   3  -5    7.19    2.16
  -3   3   5   14.72    4.04
   3  -3   5    8.98    3.44
   3  -3   5   -1.93    6.33
  -3   3   5    7.05    2.09
   3  -3   5   12.20    2.90
   3   3  -5    8.86    4.28
   3   3  -5    5.13    3.60
   3  -3   5    0.18    5.32
   3  -3   5    2.97    4.31
  -3   3   5   12.42    2.16
  -3   3   5    8.98    4.12
   3  -3   5   14.62    4.43
   3   4   5   24.22    4.66
  -3  -4   5   23.45    8.00
   3   4   5   33.59    5.17
   3   4   5   24.52    6.89
  -3   4  -5   22.80    8.65
  -3  -4   5   16.70    4.69
   3   4   5   22.04    3.35
   3   4   5   27.94    4.03
  -3   4  -5   26.26    4.78
  -3  -4   5   29.58    6.79
   3  -4  -5   14.34    4.51
  -3   4   5   21.51    6.00
  -3   4   5   27.22    3.99
   3  -4   5   26.20    5.26
   3   4  -5   31.99    5.37
  -3   4   5   23.96    4.24
  -3   4   5   28.50    3.61
   3  -4   5   24.89    6.42
   3  -4   5   19.94    3.25
   3   4  -5   26.74    4.17
   3  -4   5   14.54    8.83
   3   4  -5   31.11    4.77
   3   4  -5   33.77    4.46
   3  -4   5   21.69    6.78
   3   4  -5   31.81    8.02
   3  -5  -5   17.57    4.39
  -3  -5   5   16.52   10.98
   3   5   5    7.51    2.86
   3   5   5   17.01    3.81
   3   5   5   16.18   11.87
  -3  -5   5   21.36    9.43
  -3  -5   5   15.86    4.23
   3   5   5    8.17    2.50
   3   5   5    9.80    2.64
   3  -5  -5   13.98   11.13
  -3   5  -5   15.05    4.05
  -3   5   5   13.91    2.97
   3   5  -5   15.13    2.75
  -3   5   5   15.00    4.25
   3   5  -5   29.82   10.37
   3   5  -5   10.68    2.73
  -3   5   5   15.15    2.75
   3  -5   5   10.44    2.61
   3  -5   5   25.36   13.20
   3   5  -5   15.61    3.80
   3  -5   5   10.31    4.28
  -3  -6   5   29.57   16.04
  -3  -6   5    3.11    3.78
  -3   6  -5  -18.33   13.06
   3   6   5    8.86    2.62
   3  -6  -5    8.67    4.94
   3   6   5   10.35    4.33
  -3   6  -5    7.27    2.63
   3   6   5   12.25   11.25
   3   6   5    9.06    2.85
   3   6   5    8.56    2.74
  -3   6  -5   14.02    3.37
  -3  -6  -5    5.56   15.50
  -3   6   5    7.84    2.31
  -3   6   5   14.94    3.83
   3  -6   5    4.56   11.33
  -3   6   5    7.48   10.35
   3   6  -5    5.02    2.22
   3   6  -5    6.62    3.59
  -3   6   5   14.31    3.06
   3  -6   5   10.40    2.25
   3  -6   5    6.13    3.89
   3   6  -5    8.65    2.36
  -3   7  -5   47.68    5.41
  -3  -7   5   66.66    6.88
   3   7   5   60.43    5.36
  -3   7  -5   56.57    5.85
   3   7   5   53.45    5.71
   3   7   5   63.19    5.83
  -3   7   5   56.34    5.24
   3  -7   5   56.67    5.08
   3   7  -5   62.55    5.52
   3   7  -5   56.53    5.19
   3  -7   5   66.39    6.98
  -3   7   5   53.69    6.98
   3  -8  -5    3.28    1.70
  -3   8  -5    0.64    2.36
   3   8   5    3.34    1.66
  -3   8  -5    4.81    1.70
  -3  -8   5    9.65    3.42
   3   8   5    1.91    1.76
   3   8   5    1.91    1.67
  -3   8   5    2.64    1.46
   3   8  -5    5.95    1.48
   3  -8   5   -1.50    3.03
   3  -8   5    3.90    1.62
   4   0   5  207.86   16.00
  -4   0  -5  225.97   19.67
   4   0   5  224.91   16.51
   4   0  -5  236.94   15.61
  -4   0   5  213.68   15.58
   4   0  -5  182.86   15.11
   4   0   5  199.04   17.41
   4   0   5  211.06   14.81
  -4   0   5  201.82   14.15
   4  -1  -5   14.30    3.51
   4   1   5    9.75    5.22
   4   1   5    6.67    3.27
  -4   1  -5    2.26    5.40
   4   1   5    9.22    2.86
  -4  -1   5   13.57    3.54
   4  -1  -5   15.73    3.88
   4   1   5   11.43    3.78
   4  -1   5   19.97    3.78
   4  -1   5   13.38    4.77
  -4   1   5   13.23    4.20
   4  -1   5   11.40    4.10
   4  -1   5   12.13    2.99
   4   1  -5   19.45    4.05
   4  -1   5   15.89    4.29
   4   1  -5   14.71    2.58
  -4   1   5   13.47    2.44
   4   1  -5   18.20    3.46
   4   2   5   61.76    7.59
  -4  -2   5   59.80    7.35
   4   2   5   48.39    6.24
  -4   2  -5   64.26   10.79
   4  -2  -5   43.99    8.09
   4   2   5   43.10    9.05
   4   2   5   62.80    7.93
   4   2   5   47.35    6.56
   4  -2  -5   39.10    8.00
   4  -2   5   56.37    7.24
   4  -2   5   43.57    7.74
   4   2  -5   67.08    8.29
   4   2  -5   64.78    6.46
  -4   2   5   48.91    5.43
  -4   2   5   55.35    7.66
   4  -2   5   58.27    6.61
   4   2  -5   70.58    5.85
   4   2  -5   58.64    5.80
  -4   2   5   62.89    4.92
   4   2  -5   62.19    7.01
   4  -2   5   57.03   11.24
   4  -2   5   57.50    8.86
   4  -3  -5   14.85    4.22
   4   3   5   22.85    3.60
  -4  -3   5    9.16    6.59
  -4   3  -5   19.22    8.86
   4   3   5   13.40    3.62
  -4  -3   5   25.13    5.38
  -4   3  -5   16.87    4.73
   4   3   5   18.92    4.13
   4   3   5   12.27    3.05
   4   3   5   17.67    5.93
   4  -3   5    7.62    5.82
   4  -3   5   15.60    3.20
  -4   3   5   15.01    4.51
   4  -3   5   13.47    3.72
  -4   3   5   14.71    2.68
   4  -3   5   11.73    4.76
   4  -3   5   16.12    5.08
   4   3  -5   19.96    3.74
   4   3  -5   21.47    5.64
   4  -3   5   24.59    4.25
  -4   3   5   18.81    3.25
   4   3  -5   15.77    2.81
   4   3  -5   17.09    3.66
   4   3  -5   19.56    2.96
  -4   4  -5  104.10    9.65
  -4  -4   5   95.94   16.66
   4  -4  -5   99.43   10.40
   4   4   5  111.06   11.07
  -4   4  -5   79.21   14.60
  -4  -4   5   86.12   16.41
   4   4   5   91.42    8.45
   4   4   5  118.81   14.37
   4   4   5   93.07    8.10
   4   4   5   96.25    8.58
   4  -4   5   93.67   12.91
   4  -4   5  115.94   11.70
   4   4  -5  115.97    8.60
  -4   4   5  101.79   12.53
   4  -4   5  113.72   13.75
   4   4  -5  113.71    9.77
  -4   4   5   99.72    7.76
   4   4  -5   92.73   12.99
   4   4  -5  100.51    8.07
   4  -4   5   97.32    9.37
   4   4  -5  111.30    8.02
   4  -4   5   84.18    9.55
  -4  -5   5    0.56    4.58
  -4   5  -5    7.54    3.26
  -4   5  -5   20.96   12.34
   4   5   5   12.61    2.82
   4   5   5    4.98    9.90
   4   5   5    8.43    3.13
   4   5   5   13.85    3.15
   4  -5  -5   11.00    3.80
   4   5  -5    7.16    2.09
  -4   5   5    8.64    2.11
   4  -5   5    9.56    2.54
   4   5  -5    6.24    2.30
  -4   5   5   26.00   11.03
   4  -5   5   11.70    3.89
   4   5  -5   12.85    8.11
   4  -5   5  -11.09   11.52
   4   5  -5    5.43    2.90
   4   6   5   50.83    5.72
  -4   6  -5   51.95    6.09
   4  -6  -5   60.66   11.15
   4   6   5   56.66    5.69
   4   6   5   39.77    4.76
  -4   6   5   42.05    4.94
   4   6  -5   52.51    5.15
   4  -6   5   38.66    6.15
   4  -6   5   59.70    6.65
   4   6  -5   51.33    4.73
   4   6  -5   47.69    6.56
   4   7   5    1.49    2.07
   4   7   5    1.94    1.90
  -4   7  -5   -2.08    2.08
  -4   7  -5   -1.51    1.71
   4   7   5    3.06    1.74
  -4  -7   5    7.91    3.60
   4  -7  -5   -0.46    1.92
   4   7  -5    1.18    2.53
   4   7  -5    1.35    1.57
   4  -7   5    2.51    2.55
   4   7  -5    1.33    1.56
  -4   7   5    1.70    1.69
   4  -7   5   -2.66    1.81
  -4   8  -5   16.76    3.30
   4  -8  -5   21.77    2.72
   4   8   5   17.42    2.41
   4   8   5   18.21    2.37
   4   8  -5   16.20    2.54
   4  -8   5   20.61    3.61
  -4   8   5   20.33    2.47
   4   8  -5   22.52    2.41
   5   0  -5   -1.80    2.31
  -5   0  -5    2.86    7.55
   5   0   5   -1.96    3.05
   5   0  -5   -0.18    3.61
   5   0  -5   -4.86    3.02
   5   0   5   -2.62    3.95
   5   0  -5    3.92    3.88
   5   0   5    2.96    2.87
  -5   0   5   -0.79    3.38
  -5   0   5    0.80    1.76
  -5  -1   5   46.15    4.60
   5  -1  -5   46.72    5.79
  -5  -1   5   54.42    7.59
   5   1   5   45.23    5.71
   5   1   5   52.91    7.01
   5   1   5   42.80    6.51
   5   1   5   47.71    7.13
   5  -1  -5   49.94    8.00
   5  -1   5   41.94    6.72
   5  -1   5   52.33    5.90
   5   1  -5   46.10    4.81
   5  -1   5   53.75    9.36
   5   1  -5   54.22    8.26
   5   1  -5   55.81    5.48
   5   1  -5   50.32    5.55
   5  -1   5   45.05    8.07
   5   1  -5   45.00    5.61
  -5   1   5   39.34    4.57
  -5   1   5   48.75    8.33
   5  -2  -5    0.48    2.91
   5  -2  -5    9.80    3.60
   5   2   5    4.17    3.26
   5   2   5    0.46    4.86
  -5   2  -5    3.46    8.96
   5   2   5   -0.44    3.13
   5   2   5    4.41    4.23
   5   2   5    8.70    9.11
  -5  -2   5   12.73    4.98
   5   2  -5   10.20    4.98
   5  -2   5   11.00    3.78
   5   2  -5    5.56    2.43
   5   2  -5    5.61    1.92
  -5   2   5    2.23    4.30
   5   2  -5    5.25    1.99
   5  -2   5   12.15    5.58
   5  -2   5    4.85    3.49
  -5   2   5    5.47    1.70
   5  -2   5    0.85    2.86
  -5   2   5    5.91    2.22
   5   2  -5    5.38    2.76
  -5   3  -5   35.93   11.46
  -5  -3   5   58.80   10.49
   5  -3  -5   50.61    7.46
   5   3  -5   48.08    5.12
  -5   3   5   53.14   10.07
   5   3  -5   53.02    5.10
   5   3  -5   54.41   10.43
   5  -3   5   43.06    6.70
   5  -3   5   51.74    8.29
  -5   3   5   47.03    4.68
   5   3  -5   57.21    6.72
   5  -3   5   39.35    6.08
   5   3  -5   53.73    5.23
   5  -3   5   47.13    7.63
  -5   4  -5   14.05    3.51
   5  -4  -5    5.81    3.00
  -5   4  -5   -5.52   13.23
  -5  -4   5   19.09    8.49
   5   4   5    7.62    3.46
   5   4   5    9.83    2.63
   5   4   5    6.77    3.10
  -5   4   5    9.55    2.17
  -5   4   5   23.74    8.08
   5   4  -5   11.00    2.50
   5   4  -5    8.62    6.59
   5  -4   5    4.72    4.52
   5   4  -5    6.77    2.43
   5  -4   5   12.84    3.78
   5   4  -5   12.64    3.12
   5  -4   5   15.39    4.71
  -5   4   5   16.09    3.73
   5   4  -5    6.80    2.00
  -5   5  -5   15.89   14.40
   5   5   5   42.37    5.25
   5  -5  -5   51.64    5.77
   5   5   5   46.18    6.19
   5  -5  -5   49.32    6.69
  -5   5  -5   41.52    6.09
  -5  -5   5   35.55   13.17
   5   5   5   52.68    4.79
   5  -5   5   44.47    6.36
   5   5  -5   48.43    5.11
   5   5  -5   48.75   10.71
   5   5  -5   52.87    4.66
   5   5  -5   42.74    4.84
  -5   5   5   57.54   10.29
  -5   5   5   43.31    4.74
   5  -5   5   36.89    6.23
   5   6   5   10.30    3.00
  -5   6  -5    9.04    2.24
   5   6   5    9.45    2.65
   5  -6  -5   10.43    3.47
   5  -6  -5   17.10    2.92
  -5   6  -5   14.51    2.98
   5   6   5   11.57    2.24
   5   6  -5    8.91    2.37
   5   6  -5   17.05    3.24
  -5   6   5   10.68    2.07
   5  -6   5   14.40    3.10
   5   6  -5   12.36    2.13
  -5   7  -5   18.29    3.18
   5   7   5   22.51    3.70
   5   7   5   27.48    2.86
   5  -7  -5   17.18    3.23
  -5   7  -5   17.48    2.87
   5   7  -5   25.80    2.96
   5   7  -5   23.51    2.76
   5  -7   5   27.43    3.57
  -5   7   5   21.82    2.87
   5   7  -5   20.27    3.60
  -5  -8   5    1.81    1.03
  -6   0   5  115.65   12.44
   6   0  -5  113.95   13.00
   6   0  -5  109.19    9.16
   6   0  -5  112.24   10.69
   6   0   5  105.81    9.90
   6   0   5  124.16   11.28
   6   0  -5  113.72    9.19
   6   0   5  121.22    9.05
  -6   0   5   99.02    8.47
  -6   0  -5  146.97   22.78
   6   0   5  103.06   11.29
   6   0   5  102.17    9.54
   6  -1  -5    9.22    2.81
  -6  -1   5   13.23    2.30
   6   1   5    6.00    4.11
  -6  -1   5   11.33    6.05
   6   1   5    5.33    3.09
   6   1   5   14.87    3.57
  -6   1  -5   22.61   11.82
   6   1   5   10.42    3.70
   6  -1  -5   12.30    3.17
   6  -1  -5    8.91    3.25
   6  -1   5    9.82    4.93
   6  -1   5    8.55    3.02
   6   1  -5   14.28    3.04
   6   1  -5    8.19    5.73
   6   1  -5   14.75    2.72
   6  -1   5   10.54    4.35
   6  -1   5   12.30    3.23
  -6   1   5   19.61    6.15
   6   1  -5   17.20    2.71
  -6   2  -5   40.01   14.26
   6   2   5   64.31    8.73
   6   2   5   52.72    7.22
   6  -2  -5   66.25    7.85
  -6  -2   5   56.75    5.55
   6  -2  -5   66.62    6.45
   6   2   5   60.05    7.40
  -6   2   5   67.13    5.45
   6   2  -5   63.36    5.73
  -6   2   5   67.24   11.33
   6   2  -5   67.38    6.63
   6   2  -5   73.90    5.96
   6  -2   5   58.96    6.91
   6  -2   5   60.67    6.94
   6  -2   5   63.01    8.01
   6   2  -5   69.45    5.82
   6   2  -5   73.87   13.96
   6  -2   5   52.56   10.02
   6  -3  -5    3.90    3.37
   6   3   5   -2.67    3.94
   6   3   5    0.65    3.75
  -6  -3   5  -15.31    8.15
  -6   3  -5    4.78   13.42
   6   3  -5    2.83    1.85
  -6   3   5    2.46    1.60
   6   3  -5   -3.91    7.03
   6  -3   5   -0.52    4.06
   6  -3   5    2.38    2.54
   6   3  -5    3.99    2.03
   6   3  -5    5.58    2.53
   6   3  -5    4.85    2.01
   6  -3   5    0.81    3.37
  -6   3   5    2.75    7.72
   6  -3   5    0.27    2.88
  -6   4  -5   97.42   21.03
   6  -4  -5   88.15    8.55
  -6  -4   5  118.41   20.80
  -6   4  -5   81.34    8.15
   6  -4  -5   83.14    8.17
   6   4  -5   84.67    6.69
  -6   4   5   75.77    6.68
   6   4  -5   82.95    7.01
   6   4  -5   93.40   15.47
  -6   4   5   76.83    7.76
   6  -4   5   78.88    9.46
  -6   4   5   84.85   16.40
   6  -4   5   79.57    9.33
   6  -4   5   89.07    8.02
   6   4  -5   90.10    7.75
   6   4  -5   88.65    6.90
   6   5   5    7.23    2.04
   6   5   5    9.66    2.88
   6  -5  -5    6.28    2.69
   6  -5  -5    9.74    2.90
   6   5  -5    5.93    2.17
   6   5  -5   12.61    2.15
  -6   5   5    7.97    3.03
   6  -5   5   11.82    4.00
  -6   5   5    8.58    2.05
   6  -5   5    6.31    2.71
   6   5  -5    7.39    1.93
   6   6   5   25.36    3.31
   6   6   5   27.02    3.47
   6  -6  -5   28.27    4.94
   6  -6  -5   27.13    3.89
  -6   6  -5   28.24    3.89
   6  -6   5   37.91    4.49
   6   6  -5   33.60    3.47
   6   6  -5   26.42    2.98
  -6   6   5   27.70    3.36
   6   6  -5   30.59    3.50
  -6  -7   5   -1.83    1.23
  -6   7   5   -1.75    1.46
   6   7  -5    2.05    1.17
   6  -7   5   -2.79    1.51
   6   7  -5    3.40    1.41
  -7   0   5   -4.35    6.89
  -7   0  -5    5.59   18.34
   7   0   5    0.75    3.37
   7   0   5   -1.41    4.04
   7   0  -5    2.03    2.25
   7   0   5   -2.52    3.25
   7   0  -5    0.49    2.19
   7   0  -5    0.94    2.60
   7   0   5   -0.97    2.27
   7   0  -5   -4.99    3.38
   7   0   5   -1.63    2.08
  -7  -1   5   96.14    7.77
  -7  -1   5  132.30   16.53
   7  -1  -5   98.25    8.09
   7  -1  -5   97.71    8.45
   7   1   5  111.17   10.73
   7   1   5  109.34    9.64
   7  -1  -5  104.82    9.63
  -7   1  -5  109.00   17.97
   7   1   5   90.35    8.85
   7   1   5   92.17    7.96
  -7   1   5  134.59   16.23
  -7  -1  -5   79.23   28.42
   7  -1   5   92.58    8.78
   7   1  -5  109.71    8.55
   7   1  -5  117.96    8.35
   7  -1   5   90.68    9.93
   7   1  -5  102.59    7.92
   7  -1   5   94.72   10.79
   7   1  -5  116.50   18.04
   7  -1   5  101.48    8.80
  -7  -2   5    2.67    9.47
   7   2   5    3.32    2.23
   7  -2  -5    2.59    2.50
  -7  -2   5    5.26    2.14
   7  -2  -5    0.44    2.80
   7   2   5    3.06    2.95
   7   2   5    1.12    3.12
   7   2   5    7.88    3.90
  -7   2  -5   29.98   19.17
   7   2  -5    1.94    2.04
  -7   2   5   11.61    8.00
   7   2  -5    0.61    2.31
  -7   2   5    2.11    1.78
   7  -2   5   -1.25    3.54
   7  -2   5    3.69    3.40
   7   2  -5    1.51    2.06
   7   2  -5  -10.39    8.90
   7  -2   5   -1.21    2.29
   7  -2   5    2.72    2.85
  -7  -3   5   47.84    4.82
  -7   3  -5   48.86    6.58
   7   3   5   60.98    6.05
   7  -3  -5   52.24    6.83
   7   3   5   43.46    7.62
   7  -3   5   42.15    6.88
   7  -3   5   47.43    5.74
   7   3  -5   53.83    5.78
  -7   3   5   45.73    4.64
   7   3  -5   57.38    5.20
   7   3  -5   51.50    4.73
   7  -3   5   59.47    7.88
   7   3  -5   46.95    4.67
   7  -3   5   44.10    5.75
  -7  -4   5    4.95    2.07
   7  -4  -5    5.70    2.45
  -7   4  -5    6.19    3.07
   7   4  -5    5.58    1.83
   7  -4   5    6.71    3.42
  -7   4   5    2.13    2.85
   7   4  -5    5.80    2.00
   7   4  -5   -0.12    2.42
  -7   4   5    4.20    1.75
   7   4  -5    6.80    2.01
   7  -4   5    3.18    3.86
   7  -4   5    3.80    2.67
  -7   5  -5   41.46    5.22
  -7  -5   5   39.27    4.01
   7  -5  -5   41.16    5.05
  -7   5   5   39.89    3.85
   7  -5   5   39.86    5.85
   7   5  -5   45.03    4.18
   7   5  -5   38.57    3.97
   7  -5   5   45.68    4.58
   7   5  -5   39.73    3.80
   7  -6  -5    3.53    2.44
  -7   6  -5    2.64    1.69
  -7   6  -5    3.59    2.56
  -7  -6   5    2.07    1.38
   7   6  -5    2.73    1.66
   7   6  -5    4.62    1.71
  -7   6   5    2.31    1.30
   7  -6   5   -3.04    2.57
   8   0  -5   43.10    6.05
   8   0   5   43.40    6.35
   8   0   5   47.01    7.35
   8   0  -5   59.49    6.22
   8   0  -5   48.06    4.87
   8   1   5   -2.25    2.02
   8   1   5   -5.25    3.67
   8  -1  -5    2.63    2.24
   8   1   5   -0.37    2.89
   8   1   5   -0.92    2.15
   8   1  -5    0.48    2.54
   8   1  -5    2.24    2.12
  -8   1   5   -0.30    2.09
   8  -1   5   -0.90    3.33
   8   1  -5    0.85    1.88
   8  -1   5   -2.95    4.21
   8  -1   5    3.25    3.79
   8  -2  -5   64.15    6.74
   8   2   5   66.68    7.02
   8   2   5   56.63    5.15
   8  -2  -5   54.10    6.03
   8   2   5   60.61    7.08
   8   2   5   46.91    5.94
  -8   2   5   59.20    4.81
   8   2  -5   67.60    5.45
   8  -2   5   48.39    5.98
   8   2  -5   55.84    5.03
   8  -2   5   51.64    6.59
   8   2  -5   57.80    5.66
   8  -2   5   66.86    8.12
   8  -2   5   43.09    6.36
   8   3   5    7.08    3.38
  -8   3  -5    3.92    3.05
  -8  -3   5    3.62    2.51
   8   3   5    7.24    2.64
   8  -3  -5    5.82    2.57
   8  -3   5    2.28    1.77
   8   3  -5    1.90    1.68
   8  -3   5    5.23    2.80
   8   3  -5    8.15    2.32
   8  -3   5    6.12    3.02
  -8   3   5    2.87    2.61
  -8   3   5    5.52    1.62
   8   3  -5    2.71    1.65
   8  -3   5    5.98    2.70
  -8  -4   5   23.74    3.81
  -8   4  -5   27.25    4.81
   8  -4  -5   31.65    4.20
   8  -4   5   22.61    4.37
   8  -4   5   25.81    5.42
   8   4  -5   36.14    4.96
   8   4  -5   28.56    3.25
   8   4  -5   30.53    3.09
   8  -4   5   26.42    3.88
  -8   4   5   25.15    2.91
  -8  -5   5    1.65    1.52
   8  -5  -5   -2.84    1.68
   8  -5   5    2.28    2.38
  -8   5   5    0.66    1.25
   8   5  -5   -0.14    1.51
   8   5  -5    0.12    1.36
   8  -5   5    1.45    1.72
   9   0   5   -1.64    2.36
  -9   0   5   -0.34    1.22
   9   0   5    0.41    2.27
   9   0  -5    1.07    1.77
   9   1   5   43.41    5.17
   9  -1  -5   44.01    5.12
   9   1   5   31.57    3.98
   9   1   5   30.51    4.80
   9  -1  -5   30.10    4.08
   9   1  -5   32.29    3.63
   9   1  -5   36.57    4.30
   9  -1   5   45.17    5.06
  -9   1   5   35.52    3.28
   9  -1   5   26.83    4.37
   9   1  -5   39.92    4.39
   9  -1   5   25.39    3.74
   9  -2  -5   -2.43    2.01
  -9   2  -5    3.36    3.76
   9  -2  -5    0.93    3.34
   9   2   5   -1.84    2.53
   9   2   5    0.79    1.84
   9   2  -5    0.12    1.54
   9  -2   5   -0.68    2.26
   9  -2   5    0.77    1.53
   9   2  -5    1.83    1.78
  -9   2   5   -0.79    1.22
   9  -2   5    1.85    2.15
  -9   2   5    0.56    3.56
   9  -3  -5   67.37    5.35
   9   3   5   47.00    5.55
   9   3  -5   67.45    5.45
  -9   3   5   58.54    5.46
   9  -3   5   60.10    5.42
   9   3  -5   53.74    4.68
   9  -3   5   57.57    5.68
   9   3  -5   54.38    4.83
   9  -4  -5   -2.13    1.73
   9  -4   5    3.69    1.81
   9   4  -5   -0.47    1.34
  10   0  -5   10.38    1.85
  10   0   5    9.97    1.91
 -10   0   5   13.94    1.93
  10   0   5    6.86    1.91
  10   1   5    2.87    1.53
  10   1   5    0.90    1.99
 -10  -1   5   -0.58    1.03
  10  -1   5    0.77    1.60
 -10   1   5    2.92    1.17
  10   1  -5   -0.27    1.49
  10  -1   5    2.88    1.30
 -10  -2   5   22.59    2.25
  10  -2   5   27.17    3.19
  10   2  -5   28.57    3.72
   0   0   6   53.64    4.97
   0   0  -6   42.91    6.77
   0   0   6   34.31    6.74
   0   1   6   -1.12    1.54
   0   1  -6    4.54    3.67
   0  -1   6    1.59    2.14
   0   1   6    0.86    2.88
   0   2   6  117.78    9.36
   0   2   6  118.96   10.27
   0  -2   6  114.85   10.32
   0   3   6    0.68    1.82
   0   3   6   -4.85    2.80
   0   3   6    1.66    1.88
   0  -3   6    2.64    2.68
   0   3   6    2.16    4.11
   0   3   6    1.51    2.98
   0   3   6   -0.06    2.93
   0   3  -6    0.71    4.89
   0  -3   6    1.29    4.87
   0   3  -6    1.11    2.32
   0   3   6    5.19    2.65
   0  -4   6   28.00    7.55
   0   4   6   29.69    4.41
   0   4  -6   25.88    8.36
   0   4   6   22.29    3.54
   0   4   6   25.34    3.56
   0   4  -6   22.22    4.40
   0  -4   6   20.04    4.05
   0   4   6   19.25    3.32
   0   4   6   21.40    5.98
   0   4   6   22.49    4.26
   0   4   6   23.17    4.50
   0  -5   6   -2.87    3.04
   0  -5   6    5.80   10.65
   0   5   6    2.14    2.04
   0   5   6    0.02    3.01
   0   5   6    0.57    2.03
   0   5  -6   -2.07    7.77
   0   5   6    0.47    2.37
   0   5   6   -4.11    7.76
   0   5  -6   -2.54    2.36
   0   5  -6   -1.91    3.58
   0   6   6  221.02   16.02
   0  -6   6  222.56   16.33
   0  -6   6  237.38   31.60
   0   6   6  239.13   15.94
   0   6   6  224.15   15.68
   0  -6  -6  172.54   28.82
   0   6   6  236.01   16.34
   0   6  -6  188.07   25.51
   0   6  -6  219.16   16.13
   0   6   6  274.08   26.47
   0   6  -6  235.15   15.99
   0   7   6    0.80    2.04
   0  -7   6    2.94    2.07
   0   7  -6   -1.84    1.95
   0   7   6    4.97    2.14
   0   7   6   -0.67    2.06
   0   7  -6   -1.00    2.52
   0   8   6   69.09    5.89
   0   8  -6   75.45    6.16
   0   8   6   80.54    6.14
   0   8   6   82.83    5.95
   0   8  -6   81.31    5.89
   0  -8   6   81.89    6.07
   1   0  -6    2.60    3.06
   1   0   6   -1.90    1.58
  -1   0  -6    2.57    3.67
  -1   0   6    0.73    2.59
  -1   0   6   -0.23    1.74
  -1   1  -6  281.08   23.47
   1   1   6  363.09   23.06
  -1  -1   6  300.23   21.60
  -1  -1   6  344.92   21.89
   1   1   6  307.67   21.68
  -1   1   6  363.09   21.67
  -1   1   6  305.28   21.89
   1   1  -6  305.83   22.82
   1  -1   6  312.86   23.41
  -1   2  -6    0.28    4.01
  -1  -2   6    3.15    2.98
   1   2   6    6.52    3.79
   1   2   6    3.82    2.26
  -1  -2   6   -1.04    3.31
   1  -2   6   -0.20    2.92
  -1   2   6    4.77    2.13
  -1   2   6    0.39    3.61
   1   2  -6   -0.06    3.47
  -1  -3   6  135.28   11.33
   1   3   6  144.31   12.21
   1   3   6  153.01   10.75
  -1   3  -6  139.41   14.79
   1   3   6  155.03   13.25
   1   3   6  170.16   10.81
  -1  -3   6  157.71   13.89
   1   3   6  161.57   11.15
   1   3   6  150.11   12.00
  -1   3   6  149.22   13.38
   1  -3   6  133.35   12.94
   1  -3   6  129.37   12.93
  -1   3   6  168.27   11.01
   1  -3   6  129.61   11.15
  -1   3   6  142.01   10.92
   1  -3   6  158.29   14.21
  -1   3   6  149.00   10.43
  -1   3   6  151.87   12.14
  -1   3   6  143.00   11.98
   1   3  -6  155.19   14.23
  -1   3   6  154.72   11.28
   1   4   6   38.61    5.58
   1   4   6   39.27    4.43
   1   4   6   33.02    4.93
   1   4   6   34.04    4.50
  -1  -4   6   35.93    8.52
   1   4   6   32.78    5.47
   1   4   6   36.29    7.16
   1   4   6   38.11    6.69
  -1   4  -6   26.28    5.05
  -1   4  -6   31.34    7.52
  -1  -4   6   28.95    4.53
   1  -4   6   26.90    4.85
  -1   4   6   40.65    4.12
   1  -4   6   32.37    6.19
   1  -4   6   36.27    8.40
  -1   4   6   29.42    6.74
   1   4  -6   26.45    6.66
  -1   4   6   32.95    4.92
  -1   4   6   35.04    4.36
   1   4  -6   34.65    5.17
  -1   4   6   29.65    5.54
  -1  -5   6  100.63   15.64
   1   5   6   89.67    7.81
   1   5   6   94.50    8.37
  -1   5  -6   76.01    8.08
   1   5   6   90.05    7.76
  -1  -5   6   73.03    9.01
   1   5   6   94.30    7.77
  -1   5  -6  106.73    9.57
   1   5   6   96.43   15.75
  -1   5  -6   93.01   17.47
   1   5  -6   88.43    8.12
  -1   5   6  100.52    7.76
   1  -5   6   79.87   11.30
  -1   5   6   97.84    7.32
  -1   5   6   95.04    8.54
   1   5  -6  105.42    8.52
  -1   5   6   96.04   14.48
  -1   5   6   76.13    7.84
   1   5  -6  100.05   16.24
   1  -5   6   90.39    8.47
   1  -5   6  120.63   15.08
   1   6   6    2.68    2.18
   1   6   6   -0.75    2.08
  -1   6  -6   19.02   11.00
  -1  -6   6    9.76   14.94
   1   6   6   -1.33    2.82
  -1   6  -6   -2.61    3.05
   1   6   6   26.16   12.41
   1   6   6   -2.77    2.60
   1  -6  -6  -15.13   13.33
  -1  -6   6    0.97    3.41
  -1   6  -6    1.42    2.73
   1   6  -6    0.18    2.62
  -1   6   6    4.02    2.75
  -1   6   6   -8.81   10.53
   1   6  -6   12.19   10.27
   1  -6   6    7.28    2.63
   1   6  -6    0.12    2.15
  -1   6   6    5.24    2.46
  -1   6   6    4.44    2.44
   1  -6   6   -0.63    5.33
  -1   6   6    4.17    2.30
   1   7   6  243.30   15.42
  -1  -7   6  217.63   15.62
  -1   7  -6  201.63   15.26
  -1   7  -6  226.33   15.33
   1   7   6  229.41   15.47
   1   7   6  229.41   15.33
   1  -7   6  214.91   15.37
   1   7  -6  222.00   15.17
  -1   7   6  202.88   15.29
  -1   7   6  226.05   15.23
  -1   7   6  225.49   15.28
   1   7  -6  232.55   15.37
  -1   8  -6    1.11    1.42
   1   8   6    1.98    1.59
  -1   8  -6    0.68    2.19
   1  -8  -6    3.49    2.05
   1   8   6   -0.43    1.30
   1   8   6    1.32    1.47
  -1  -8   6    1.55    1.67
  -1   8   6   -0.08    1.61
  -1   8   6    1.73    1.30
   1   8  -6    1.10    1.35
   1   8  -6    1.18    1.93
  -1   8   6   -0.26    1.80
   1  -8   6   -0.01    1.35
  -2   0   6  344.93   24.19
  -2   0  -6  294.23   25.83
   2   0  -6  379.34   24.07
  -2   0   6  372.73   23.72
   2   0   6  376.01   24.17
  -2  -1   6   27.74    5.01
  -2  -1   6   29.37    4.59
  -2   1  -6   19.33    7.87
   2   1   6   22.31    4.22
   2  -1   6   26.04    4.77
  -2   1   6   30.86    5.09
  -2   1   6   28.18    4.32
   2   1  -6   21.95    4.51
  -2  -1  -6   29.53    6.01
   2   2   6  219.75   15.53
  -2  -2   6  218.09   15.76
  -2  -2   6  211.11   15.72
   2   2   6  199.51   15.93
   2   2   6  217.39   14.86
   2   2   6  224.59   15.46
  -2   2  -6  190.37   18.96
   2   2   6  227.81   14.63
  -2   2   6  224.18   16.16
  -2   2   6  225.17   15.28
   2  -2   6  195.52   15.85
   2   2  -6  213.19   17.07
   2  -2   6  208.17   17.04
  -2   2   6  213.05   14.26
   2  -2   6  204.20   14.79
   2  -2   6  219.28   16.30
  -2   2   6  207.50   15.66
  -2  -3   6   22.51    5.83
  -2   3  -6   37.03    9.17
  -2  -3   6   38.67    5.92
   2   3   6   29.14    4.74
   2   3   6   35.99    4.71
   2   3   6   32.78    6.34
   2   3   6   35.30    4.48
   2   3   6   40.46    6.40
  -2  -3   6   27.00    5.61
   2   3   6   38.52    6.49
  -2   3   6   30.65    4.27
  -2   3   6   29.34    5.48
   2   3  -6   39.25    8.66
   2  -3   6   35.15    6.55
   2  -3   6   34.70    5.88
   2   3  -6   31.78    4.90
  -2   3   6   28.01    3.68
   2  -3   6   28.24    8.07
  -2   3   6   45.24    6.66
   2  -3   6   34.56    6.75
   2   3  -6   28.56    4.84
  -2   3   6   28.36    4.83
   2  -3   6   36.56    5.22
  -2   3   6   38.81    6.14
  -2   4  -6   13.25    7.72
   2   4   6   25.53    7.01
   2   4   6   18.79    3.00
   2   4   6    8.54    3.84
  -2  -4   6   11.84    3.31
   2   4   6   12.68    2.90
   2   4   6   25.46    4.70
  -2  -4   6   19.90    7.59
   2   4  -6   22.42    4.20
  -2   4   6   19.08    3.13
  -2   4   6   14.35    3.43
   2  -4   6   21.15    5.37
   2  -4   6    3.02    6.89
  -2   4   6   16.29    6.24
   2  -4   6   14.38    5.48
  -2   4   6   12.52    2.51
   2  -4   6   16.02    3.07
  -2   4   6   19.85    4.04
   2   4  -6   14.10    4.87
   2   4  -6    4.90    5.65
  -2  -5   6   -1.41    3.24
  -2   5  -6    4.91    4.27
  -2   5  -6    2.32    2.18
  -2   5  -6   -8.77   10.51
   2   5   6   -0.10    2.55
   2   5   6    2.34    2.48
   2   5   6    3.13    2.78
   2   5   6   -5.37   10.81
   2  -5  -6    3.79    3.89
  -2  -5   6    3.97   12.03
   2   5   6   -1.35    1.93
   2  -5   6    3.07   10.37
   2   5  -6    0.93    2.34
   2   5  -6    0.72    7.44
   2   5  -6    1.41    2.92
   2  -5   6    1.05    2.54
   2  -5   6    2.99    4.82
  -2   5   6    3.75    7.33
  -2   5   6    2.78    2.38
  -2   5   6   -1.13    2.68
  -2   5   6    2.98    2.82
  -2   5   6    0.65    1.74
   2   6   6   58.37    6.36
  -2   6  -6   57.55    6.46
   2   6   6   73.50    6.40
  -2   6  -6  111.85   21.14
  -2  -6   6   57.26    7.29
   2  -6  -6   55.63   18.51
  -2   6  -6   74.49    7.34
   2   6   6   65.42    6.48
   2   6   6   50.05   13.21
   2   6   6   63.58    7.06
  -2   6   6   60.49    6.02
   2   6  -6   95.07   17.81
   2  -6   6   52.58    8.46
   2  -6   6   62.03    6.39
  -2   6   6   63.87    6.52
  -2   6   6   96.61   13.74
   2   6  -6   66.15    6.24
  -2  -6  -6   72.99   20.33
   2   6  -6   70.30    6.53
  -2   6   6   71.68    6.09
   2  -6   6   79.84   14.31
   2   7   6    1.92    1.82
   2   7   6    3.10    2.09
  -2  -7   6    4.36    2.79
  -2   7  -6    2.29    2.03
  -2   7  -6    0.04    2.62
   2   7   6    0.23    2.04
  -2   7   6    5.18    2.22
   2  -7   6   -0.36    4.01
  -2   7   6   -3.19    2.25
   2   7  -6    0.92    2.11
  -2   7   6    3.71    1.84
   2   7  -6    0.44    1.68
   2  -7   6   -0.41    1.83
  -2  -8   6   44.20    4.33
   2  -8  -6   48.17    4.96
  -2   8  -6   50.94    5.61
   2   8   6   51.90    4.39
   2   8   6   49.82    4.49
   2   8   6   57.92    4.34
  -2  -8   6   59.08    4.75
  -2   8  -6   52.62    4.98
  -2   8   6   52.57    4.24
   2  -8   6   56.59    4.22
   2   8  -6   47.19    4.62
  -3   0   6   -3.66    3.04
   3   0   6   -1.99    2.39
   3   0   6   -2.55    4.73
  -3   0   6   -0.71    1.44
   3   0   6    0.28    2.45
   3   0  -6   -1.86    3.51
  -3   0   6    0.47    2.45
  -3   0  -6    9.09    5.64
   3   0  -6   -2.92    2.86
   3   0   6   -0.12    3.82
   3   1   6  306.78   21.02
  -3  -1   6  298.85   20.46
  -3  -1   6  285.18   19.52
   3   1   6  322.54   20.08
  -3  -1   6  291.99   20.84
   3  -1  -6  249.69   21.04
   3   1   6  304.91   20.73
   3   1   6  307.67   19.80
  -3   1  -6  253.25   24.33
   3   1   6  312.89   21.97
  -3   1   6  301.62   20.16
   3   1  -6  286.64   20.64
  -3  -1  -6  257.15   24.48
   3   1  -6  340.74   21.53
   3  -1   6  314.95   20.43
   3  -1   6  306.16   20.16
   3  -1   6  245.96   21.41
   3  -1   6  302.31   22.03
   3  -1   6  313.56   20.98
  -3   1   6  303.35   19.46
  -3   1   6  318.92   21.36
   3  -1   6  303.02   22.01
   3   2   6   56.23    6.47
   3   2   6   52.69    5.35
   3   2   6   51.82   10.15
   3   2   6   54.26    5.71
  -3   2  -6   59.88   12.86
   3   2   6   54.30    6.93
   3   2   6   55.05    6.98
  -3  -2   6   56.71    7.34
  -3  -2   6   61.46    7.20
  -3   2   6   46.29    7.25
   3  -2   6   52.93    7.66
  -3   2   6   49.19    4.62
   3   2  -6   62.22    7.36
   3  -2   6   42.59    7.68
  -3   2   6   43.64    4.73
  -3  -2  -6   45.32   11.62
   3   2  -6   52.18    5.95
   3   2  -6   70.40    8.78
   3  -2   6   48.02    5.90
   3  -2   6   41.60    7.10
   3   2  -6   58.85    7.25
   3  -2   6   51.80    8.60
   3  -2   6   47.35    6.48
  -3   2   6   49.29    7.39
  -3   2   6   62.24    9.67
   3   3   6   45.66    4.95
   3   3   6   43.57    6.86
   3   3   6   45.80    5.71
   3   3   6   45.89    5.19
  -3  -3   6   39.85    6.42
  -3  -3   6   39.00    6.86
   3   3   6   42.73    6.07
  -3  -3   6   35.07    6.19
  -3   3  -6   37.45   10.97
   3   3   6   40.80    7.12
   3   3  -6   48.32    5.58
  -3   3   6   37.84    4.11
   3   3  -6   47.49    9.19
   3  -3   6   58.70    9.41
   3   3  -6   43.67    4.87
  -3   3   6   35.77    5.49
  -3   3   6   57.13    8.11
   3  -3   6   28.56    5.24
   3  -3   6   38.34    7.69
   3  -3   6   36.67    7.00
   3   3  -6   38.87    7.30
  -3   3   6   36.67    4.34
   3  -3   6   47.85    8.91
   3   4   6    0.27    2.16
  -3   4  -6    8.55    9.41
   3   4   6    8.17    7.21
   3   4   6   -2.03    2.81
   3   4   6   -1.17    2.70
  -3  -4   6    2.27    7.03
  -3  -4   6    0.25    3.48
  -3  -4   6   -6.22    8.06
   3  -4   6    4.77    4.38
   3   4  -6    4.86    4.29
   3   4  -6   -5.71    6.57
   3   4  -6    0.99    1.92
   3  -4   6    3.96    5.10
  -3   4   6    0.19    1.81
   3   4  -6    1.21    2.97
   3  -4   6    2.75    6.81
  -3   4   6   -4.65    3.30
  -3   4   6    1.87    6.01
  -3   4   6    3.01    1.62
  -3   4   6    2.71    4.32
   3  -4   6   -7.91    6.31
   3   4  -6   -0.28    3.74
   3  -4   6   -0.43    2.24
   3   5   6   76.51    6.84
   3  -5  -6   69.51    8.80
  -3   5  -6   82.71    8.60
   3   5   6   74.49    6.45
   3   5   6   58.30    6.63
   3   5   6   60.07    7.05
  -3  -5   6   57.26    8.24
  -3   5  -6   61.09   13.12
   3   5   6   90.77   18.32
  -3  -5   6   71.63   14.60
   3   5  -6   72.17   11.82
  -3   5   6   80.71   11.33
   3  -5   6   70.94    6.61
   3   5  -6   80.48    6.56
  -3   5   6   77.53    6.17
   3  -5   6   54.08    8.60
  -3   5   6   65.72    6.01
  -3   5   6   56.37    8.24
   3   5  -6   71.07    6.64
   3  -5   6   58.23   10.14
  -3   6  -6   -1.06    1.94
   3   6   6    0.17    3.89
   3   6   6   -2.18    2.18
  -3   6  -6    2.76    3.98
   3  -6  -6    1.90    4.18
   3   6   6    1.34    2.30
   3   6   6    0.18    2.23
   3   6  -6    1.89    2.19
  -3   6   6   -0.48    2.49
   3  -6   6   -0.92    1.90
   3   6  -6   -1.11    1.92
   3  -6   6   -1.00    3.64
  -3   6   6   -0.07    1.75
  -3  -7   6   54.22    6.35
   3   7   6   58.84    5.53
   3   7   6   60.01    5.48
   3   7   6   60.24    5.34
  -3   7  -6   56.89    6.14
   3   7  -6   61.50    5.32
  -3   7   6   59.70    5.04
  -3   7   6   65.07    6.33
   3  -7   6   64.34    6.62
   3   7  -6   67.40    5.38
   3  -7   6   61.01    5.02
   3   8   6   -0.43    1.06
  -3  -8   6    4.08    1.50
  -3  -8   6    2.20    2.18
   3   8   6   -0.11    2.21
   3  -8  -6    5.09    3.46
   3   8   6   -1.04    1.58
  -3   8  -6    0.46    1.44
   3  -8   6    0.16    1.31
   3   8  -6    1.85    1.20
  -3   8   6    2.86    1.50
   4   0   6  201.27   13.94
   4   0   6  199.97   14.01
   4   0  -6  216.74   15.35
  -4   0   6  194.65   15.61
  -4   0   6  199.27   13.32
   4   0   6  202.41   15.07
   4   0  -6  186.51   14.41
   4   0   6  164.73   15.54
   4   0   6  192.75   16.22
   4   0   6  210.08   15.63
  -4   0  -6  203.32   20.29
  -4  -1   6   48.41    7.25
   4   1   6   50.19    7.22
   4   1   6   40.59    5.35
   4   1   6   53.31   10.05
  -4   1  -6   43.98    9.64
   4   1   6   51.97    5.51
   4  -1  -6   39.66    6.21
  -4  -1   6   51.90    4.57
   4   1   6   45.64    8.40
   4  -1   6   49.22    7.52
   4   1  -6   56.72    6.25
  -4   1   6   54.21    7.83
   4  -1   6   46.30    5.78
  -4   1   6   47.11    4.34
  -4  -1  -6   60.92   11.39
   4   1  -6   46.64    7.52
   4  -1   6   52.24    7.61
   4   1  -6   48.20    5.82
   4  -1   6   47.83    5.91
   4  -1   6   46.51    9.35
   4   2   6   27.38    4.99
   4   2   6   33.00    5.32
   4   2   6   32.22    4.73
   4   2   6   35.52    4.86
  -4  -2   6   25.21    4.91
  -4   2  -6   32.91    9.41
   4  -2  -6   30.58    6.27
  -4  -2  -6   36.80   14.08
   4  -2   6   24.54    4.81
   4   2  -6   29.25    4.32
   4  -2   6   32.59    6.08
   4   2  -6   21.99    5.31
   4   2  -6   31.08    3.80
   4  -2   6   20.68    5.78
   4  -2   6   28.40    5.36
  -4   2   6   25.84    4.73
  -4   2   6   24.62    3.48
   4   2  -6   31.77    4.57
  -4   2   6   27.87    3.47
   4  -2   6   27.72    5.69
   4   3   6    3.34    3.03
   4   3   6    3.25    5.27
   4   3   6    8.95    4.33
  -4  -3   6   -3.25    6.03
   4  -3  -6    0.75    3.46
  -4   3  -6   -2.18   11.22
  -4   3   6   -0.81    2.32
  -4   3   6   -1.67    1.54
  -4   3   6   16.11    5.57
   4   3  -6    2.39    5.21
   4  -3   6    3.14    3.25
   4  -3   6   -5.73    7.34
   4   3  -6    2.08    2.11
   4   3  -6    1.57    3.49
   4  -3   6    0.52    2.45
   4   3  -6    0.15    3.15
   4  -3   6    1.24    3.11
   4  -3   6    2.65    3.96
   4   4   6   92.68    8.05
   4  -4  -6   94.31    9.45
   4   4   6   91.25    7.88
  -4   4  -6   83.52    9.68
   4   4   6   79.50    7.72
   4   4   6   87.29    7.84
  -4  -4   6   82.55   15.20
  -4   4  -6   95.54   20.00
   4  -4   6  100.71   10.86
   4  -4   6   63.09   12.06
   4  -4   6   92.10    9.31
  -4   4   6   87.95    7.14
   4  -4   6   89.14    7.49
   4   4  -6   89.63    7.52
   4   4  -6   82.58   13.83
   4   4  -6  100.02    7.62
  -4   4   6  109.70   14.11
  -4   4   6   89.49    7.18
   4   4  -6   98.64    8.28
  -4   5  -6   -0.39   13.00
  -4   5  -6    2.30    3.79
   4  -5  -6   -4.75    3.23
   4   5   6    4.67    2.34
   4   5   6    0.05    2.55
   4   5   6   -2.79    2.36
   4   5   6   -0.36    3.68
  -4  -5   6    8.30    4.18
   4   5  -6   -5.09    8.68
   4  -5   6    5.24    2.04
  -4   5   6    0.19    1.62
   4   5  -6   -1.78    2.78
   4  -5   6   -0.05    3.59
  -4   5   6   -9.86    9.38
   4   5  -6   -2.47    4.24
   4   5  -6   -2.81    2.07
   4   5  -6    1.11    2.09
  -4   5   6   -1.55    2.50
   4   6   6   78.97    6.31
  -4  -6   6   74.92    8.70
  -4   6  -6   64.56    7.77
   4   6   6   85.25    6.90
   4   6   6   72.18    6.73
   4  -6  -6   76.24    8.37
  -4   6  -6   60.46    6.70
   4   6  -6   90.77    7.55
   4   6  -6   79.81    6.32
   4  -6   6   66.11    6.01
   4  -6   6   80.42    7.67
  -4   6   6   76.07    6.24
   4   6  -6   88.38    6.69
   4   7   6    4.12    2.11
   4   7   6    4.85    2.01
   4  -7  -6    6.77    2.05
   4   7   6    3.38    1.80
  -4   7  -6    6.09    1.60
  -4   7  -6    0.60    3.20
   4   7  -6    5.20    2.16
   4  -7   6    0.07    2.28
   4  -7   6    1.78    2.52
   4   7  -6    5.74    1.68
  -4   7   6    4.15    1.37
   4   8   6   42.46    4.01
  -4  -8   6   51.49    3.84
   4  -8  -6   50.41    4.06
  -4   8   6   46.70    3.83
   4   8  -6   55.76    3.80
  -5   0   6   -1.18    4.62
   5   0   6   -0.05    3.63
   5   0   6    4.20    2.55
   5   0   6   -0.98    6.68
   5   0  -6   -1.70    6.03
   5   0  -6    2.68    3.99
  -5   0   6    1.23    1.53
  -5   0  -6    1.64    9.95
   5   1   6   21.34    4.30
   5   1   6   32.79    5.26
   5   1   6   28.80    9.80
  -5  -1   6   27.78    5.38
  -5   1  -6   28.02   10.96
   5   1   6   32.60    5.94
   5   1   6   43.49    6.33
  -5  -1   6   39.08    6.85
   5  -1  -6   42.43    8.49
  -5   1   6   37.62    6.57
   5  -1   6   27.35    5.57
   5  -1   6   21.42    4.90
   5  -1   6   43.80    6.67
  -5  -1  -6   26.18   15.94
   5   1  -6   36.45    5.14
   5  -1   6   33.67    5.34
   5   1  -6   29.90    6.05
  -5   1   6   26.75    3.58
   5   1  -6   37.97    5.14
   5  -2  -6   -1.08    2.68
   5   2   6    5.14    2.64
  -5  -2   6    4.69    5.41
   5   2   6    5.82    2.98
   5  -2  -6    1.08    3.25
  -5   2  -6    6.51   10.84
   5   2   6   15.76    9.94
   5   2   6   -1.91    3.75
  -5  -2   6    1.01    1.65
   5  -2   6    5.99    3.85
   5   2  -6    2.05    2.21
  -5   2   6   -2.26    5.19
   5   2  -6   -0.02    2.15
   5  -2   6    0.69    2.87
  -5   2   6    2.25    1.73
  -5  -2  -6   -4.84   19.65
   5   2  -6   -2.76    5.52
   5   2  -6    1.62    2.56
  -5   2   6    1.55    1.49
   5  -2   6   -0.28    2.95
   5   3   6   14.12    3.53
  -5  -3   6   30.12    8.32
   5   3   6   17.75    3.77
   5  -3  -6   34.25    6.53
   5   3   6   26.06    3.76
  -5   3  -6   20.70   13.70
   5   3  -6   25.53    3.70
   5   3  -6   21.02    3.25
   5  -3   6   15.24    4.30
   5  -3   6   20.93    4.13
   5   3  -6   24.50    4.18
  -5   3   6   24.52    3.52
   5   3  -6   23.72    6.91
  -5   3   6   21.27    2.95
  -5   3   6   19.90    7.27
   5  -3   6   12.68    4.96
   5  -3   6   19.06    4.07
   5   4   6   12.04    3.29
  -5   4  -6   17.15    4.50
   5   4   6   14.91    3.22
  -5  -4   6   27.58   11.59
   5  -4  -6    8.58    3.66
   5   4  -6    8.96    2.41
   5   4  -6   19.72    8.02
   5  -4   6    4.11    3.50
   5   4  -6    9.41    2.69
   5  -4   6   14.50    4.76
  -5   4   6    7.95    2.13
   5   4  -6    8.15    3.05
  -5   4   6   14.79    8.17
   5  -4   6    8.64    4.72
   5   5   6   46.21    6.27
   5   5   6   65.67    6.87
   5  -5  -6   57.34    6.85
  -5   5  -6   47.71    7.33
   5   5  -6   66.50    5.80
  -5   5   6   58.13    5.22
   5   5  -6   63.22    5.38
   5  -5   6   48.51    6.47
   5   5  -6   61.25    8.38
   5   5  -6   66.29    6.78
   5  -5   6   62.44   10.54
   5  -6  -6    7.75    2.35
   5   6   6    7.54    2.72
   5   6   6    3.94    2.80
   5   6   6    5.33    1.86
   5  -6  -6    8.15    2.78
  -5   6  -6    6.75    3.09
   5   6  -6    7.48    2.09
   5   6  -6    7.21    2.49
  -5   6   6    2.92    1.73
   5   6  -6    6.32    2.02
   5  -6   6    8.71    2.61
  -5  -7   6   39.51    3.67
   5  -7  -6   40.85    4.21
   5   7   6   37.36    3.99
   5   7   6   33.52    3.85
   5   7  -6   44.60    3.65
  -5   7   6   39.37    3.70
   5  -7   6   42.67    4.45
   6   0   6   91.98   10.87
   6   0   6  109.66   10.56
  -6   0   6   89.02    7.44
   6   0   6  107.40    8.58
   6   0  -6  102.45    9.97
  -6   0   6  109.41   13.42
  -6   0  -6  164.23   29.73
   6   0  -6  104.82    8.46
   6   0   6   95.32    9.26
  -6   1  -6   -1.32   15.96
   6   1   6    2.09    4.10
  -6  -1   6    7.73    1.95
   6  -1  -6    6.55    2.85
  -6  -1   6   17.56    6.70
   6  -1  -6    8.47    3.21
   6   1   6    6.30    3.12
   6   1   6    8.31    3.60
   6   1   6    9.67    3.09
   6   1  -6   10.01    2.87
   6  -1   6   10.05    2.87
  -6   1   6   21.67    7.21
   6   1  -6   17.81    7.76
   6  -1   6    9.71    4.14
  -6   1   6    6.39    2.20
  -6  -1  -6   14.77   20.71
   6  -1   6    8.29    3.12
   6   1  -6   13.10    2.72
   6  -1   6    2.99    3.72
   6  -2  -6   20.76    3.50
  -6  -2   6   22.74    3.73
   6   2   6   27.68    5.43
   6   2   6   21.29    4.82
   6   2   6   26.92    5.53
  -6   2  -6   31.54   14.52
   6  -2  -6   28.73    4.81
   6   2   6   20.62    4.81
   6   2  -6   33.17    4.78
  -6   2   6   31.58    3.40
  -6  -2  -6   18.14   39.01
   6   2  -6   29.64    3.99
   6  -2   6   23.50    5.81
   6   2  -6   39.63    9.90
  -6   2   6   37.65    8.16
   6  -2   6   28.52    5.13
   6  -2   6   23.46    4.67
   6   2  -6   33.39    4.87
   6  -2   6   27.70    4.39
  -6   3  -6    0.00    4.46
  -6   3  -6    5.25   15.79
   6   3   6   -4.71    4.19
  -6  -3   6   -6.35    9.46
  -6  -3   6    2.52    1.85
   6  -3  -6    1.79    3.00
   6   3  -6    1.58    1.84
   6  -3   6   -1.35    2.54
   6   3  -6   -2.89    8.65
   6  -3   6    4.03    3.84
   6  -3   6    7.44    3.51
  -6   3   6    7.32    8.24
  -6   3   6    1.15    1.52
   6   3  -6    0.40    1.84
   6   3  -6    5.57    2.78
   6  -3   6   -4.80    2.66
   6   3  -6    3.96    2.31
   6  -4  -6   52.50    6.43
  -6   4  -6   55.51    8.12
   6  -4   6   45.81    8.52
   6   4  -6   50.21    4.81
   6   4  -6   44.78    7.73
   6  -4   6   38.75    5.61
   6  -4   6   57.80    9.85
   6   4  -6   52.47    5.13
  -6   4   6   36.93    4.41
   6   4  -6   44.69    5.21
  -6   5  -6   14.28    3.90
   6  -5  -6   17.10    3.17
   6  -5  -6   13.49    2.99
   6   5  -6   17.38    3.32
   6   5  -6   14.54    2.39
   6   5  -6   16.55    2.43
   6  -5   6   15.14    3.40
  -6   5   6   18.44    2.86
   6  -5   6   12.84    4.02
   6  -6  -6   17.08    2.84
  -6   6  -6   14.32    2.89
  -6  -6   6   19.94    2.93
   6  -6  -6   14.10    2.90
  -6   6   6   21.14    2.55
   6   6  -6   22.52    2.69
   6   6  -6   17.69    3.39
   6  -6   6   23.90    3.39
  -6  -7   6    0.53    1.17
   6   7  -6    0.01    0.86
  -6   7   6    0.61    1.19
   6  -7   6   -0.20    1.65
   7   0   6    0.73    2.52
   7   0   6    4.90    3.71
   7   0  -6   -1.61    2.15
   7   0  -6   -2.18    4.12
   7   0  -6   -1.37    3.59
  -7   0   6   -3.78    2.11
  -7   0  -6    5.10   23.59
  -7   0   6   14.53    9.34
   7  -1  -6   19.64    3.26
   7   1   6   24.21    5.69
  -7  -1   6   19.14    3.30
   7   1   6   12.84    4.21
   7   1   6   15.28    3.42
   7   1   6   29.58    5.52
  -7  -1   6   30.65    9.76
   7  -1  -6   28.52    5.20
  -7   1  -6   -0.07   19.94
   7  -1   6   17.97    4.04
   7   1  -6   14.82    2.91
  -7   1   6   22.84   10.51
  -7   1   6   20.76    3.14
  -7  -1  -6   -1.86   31.63
   7   1  -6   19.89    3.19
   7  -1   6   13.31    3.16
   7  -1   6   19.36    5.05
   7  -1   6   24.31    4.76
   7   2   6    5.40    3.74
   7  -2  -6    4.86    2.33
   7   2   6   -0.53    3.57
  -7  -2   6    3.90    2.00
   7   2  -6   -0.09    2.24
   7  -2   6    3.17    2.99
   7   2  -6    0.85    2.11
   7  -2   6   -0.22    3.98
  -7   2   6    1.13    1.49
   7  -2   6   -2.94    2.40
   7  -2   6    0.17    2.36
   7   3   6    9.74    3.76
  -7   3  -6    6.32    6.57
   7  -3  -6   10.52    2.94
   7  -3   6    4.51    2.73
  -7   3   6   10.51    2.00
   7  -3   6    8.83    2.75
   7   3  -6    8.11    2.58
   7   3  -6    4.95    2.16
   7  -3   6   10.69    3.44
   7   3  -6    6.67    2.32
   7  -3   6    8.09    3.83
  -7  -4   6    7.44    1.99
   7  -4  -6    4.07    2.29
   7  -4   6    4.44    3.18
   7   4  -6    5.14    2.16
  -7   4   6    2.60    1.53
   7  -4   6    5.58    3.53
   7  -4   6    7.36    2.60
   7   4  -6    9.31    2.36
   7   4  -6    5.93    2.01
   7  -5  -6    3.19    1.96
  -7  -5   6    4.55    1.68
   7  -5   6   11.00    3.26
  -7   5   6    6.05    1.40
   7  -5   6    3.31    1.88
   7   5  -6    4.36    1.48
   7   5  -6    4.32    2.33
   7  -6  -6    6.14    2.36
  -7   6  -6    3.67    1.56
  -7  -6   6    3.11    1.37
  -7   6   6    3.54    1.44
   7   6  -6    2.47    1.01
   8   0   6   10.60    3.61
   8   0   6   10.92    3.40
  -8   0   6   11.64    2.10
   8   0   6    7.52    2.64
   8   0  -6    7.19    3.66
   8   0  -6    9.14    2.32
   8   1   6    0.13    2.72
   8   1   6    0.99    3.15
   8  -1  -6   -1.60    2.08
   8   1   6    4.00    2.41
   8  -1  -6   -0.65    2.64
   8  -1   6    1.60    2.06
   8  -1   6    5.12    3.02
   8  -1   6   -1.42    2.97
   8   1  -6   -2.43    2.44
   8   1  -6    1.85    1.94
   8   1  -6    0.21    3.30
   8  -1   6    1.29    3.08
  -8   1   6    1.61    1.40
   8  -2  -6   25.78    4.58
   8  -2  -6   33.61    4.94
   8   2   6   25.70    4.35
   8   2   6   27.17    5.68
   8   2   6   28.31    5.04
   8  -2   6   33.68    5.33
   8   2  -6   20.30    4.17
  -8   2   6   30.87    3.14
   8  -2   6   29.08    4.03
   8  -2   6   21.57    4.42
   8   2  -6   28.59    4.22
   8   2  -6   37.52    3.86
   8  -2   6   36.68    5.59
   8  -3  -6    6.78    2.07
  -8  -3   6    1.26    1.83
   8   3  -6    3.12    1.69
   8  -3   6    1.83    2.57
   8   3  -6    3.49    2.00
   8  -3   6    2.45    2.29
   8   3  -6    2.96    3.54
   8  -3   6   -3.28    2.52
  -8   3   6    3.17    1.37
  -8  -4   6    9.56    1.83
   8  -4  -6    8.60    2.17
   8  -4   6   17.55    4.25
   8   4  -6   12.08    2.39
   8   4  -6   10.40    2.26
   8  -4   6    6.95    2.42
  -8   4   6   10.72    1.60
   8  -4   6    8.73    3.15
  -8   5  -6    2.36    1.45
   8  -5  -6    1.81    1.56
   8   5  -6    0.28    1.00
  -8   5   6    0.65    1.15
   9   0  -6    1.93    1.66
   9   0   6    0.90    2.32
   9   0   6    1.95    2.18
   9   0   6   -0.02    1.75
  -9   0   6   -0.30    1.05
   9   1   6   -0.65    2.26
  -9  -1   6    0.31    1.32
   9  -1  -6   -1.15    1.80
   9   1   6    0.84    2.58
   9   1   6    0.35    2.37
   9  -1  -6    2.25    2.57
   9  -1   6   -0.16    1.50
   9  -1   6    1.33    2.07
   9   1  -6   -0.28    1.45
  -9   1   6    0.89    1.09
   9  -1   6    2.97    2.09
   9  -2  -6    2.10    3.03
   9   2   6    5.01    2.62
  -9  -2   6   -0.52    1.09
   9   2   6    1.60    2.69
   9  -2  -6    1.10    2.00
   9  -2   6    3.04    2.59
   9   2  -6    2.08    1.65
   9  -2   6    6.05    2.05
   9   2  -6   -2.74    2.76
  -9   2   6    1.23    1.13
   9  -3  -6    3.32    1.86
  -9   3   6   -0.76    1.43
   9  -3   6    3.73    1.82
   9  -3   6    0.74    2.33
   9   3  -6    0.16    1.66
   9   3  -6    0.33    2.68
   0   0   7   -1.87    2.13
   0   0  -7    3.67    4.48
   0   0   7    1.97    2.64
   0   1   7    7.05    3.24
   0  -1   7   12.67    2.58
   0   1   7    7.29    3.02
   0   1   7    9.75    2.46
   0  -1   7    6.21    3.95
   0   1   7   12.56    4.25
   0   1   7    5.58    2.08
   0   1  -7    9.69    4.73
   0  -1   7    4.61    2.77
   0   2   7    0.53    2.89
   0   2   7    5.70    2.55
   0  -2   7    2.65    2.25
   0  -2   7   -0.99    3.22
   0   2   7    0.93    4.59
   0   2   7   -0.46    2.36
   0   2   7    0.06    1.86
   0  -2   7   -2.96    3.44
   0   2  -7   -6.13    5.28
   0  -2   7   -2.26    2.57
   0   2   7    1.22    1.77
   0   2  -7   -1.58    3.02
   0  -3   7    6.82    2.80
   0   3   7   10.53    5.74
   0   3   7    4.66    2.49
   0   3   7    7.10    2.07
   0  -3   7   15.59    5.91
   0   3   7    8.73    3.21
   0   3   7    9.99    2.23
   0   3   7    8.46    2.94
   0  -3   7    8.85    2.86
   0   3   7    7.86    2.81
   0   3  -7    9.96    6.24
   0   3  -7    5.73    2.56
   0  -4   7   -1.60    3.01
   0   4   7   -2.40    7.31
   0  -4   7   -0.30    2.85
   0   4   7   -0.63    1.95
   0   4   7    0.81    2.02
   0   4  -7    0.00    2.27
   0   4   7   -3.66    3.84
   0   4   7   -6.76    4.39
   0  -4   7   -0.97    8.85
   0   4   7   -1.29    2.41
   0   4  -7   -2.32    7.36
   0   5  -7   23.00    4.85
   0   5   7   31.81    5.25
   0   5   7   37.03    4.79
   0   5   7   34.59    4.03
   0   5  -7   45.19   11.74
   0  -5   7   21.50    4.02
   0   5   7   30.24    9.90
   0   5   7   23.78    4.67
   0  -5   7   50.41   15.30
   0   6   7   14.02   15.25
   0   6   7    1.68    2.10
   0   6   7    0.67    2.69
   0   6  -7    3.22   11.46
   0  -6   7    7.07    2.74
   0   6   7    1.28    2.17
   0   7   7   -2.65    1.82
   0  -7   7   -3.50    1.85
   0   7  -7   -2.46    1.59
   0   7   7   -2.52    1.78
   0   7   7   -0.16    1.87
   0   8   7    1.93    1.85
   0   8   7   -0.41    2.69
   0   8   7    0.50    1.30
   0   8  -7    0.16    1.37
   0  -8   7   -0.91    1.34
  -1   0   7   -1.34    1.74
  -1   0   7   -1.18    2.25
   1   0   7    0.45    2.16
   1   0   7   -3.53    4.12
   1   0   7    2.22    3.82
  -1   0   7    4.14    3.85
   1   0   7   -1.17    1.97
  -1   0   7    2.63    5.17
  -1   0  -7   -2.63    5.03
   1   0   7    1.54    2.67
   1   0  -7    1.76    4.03
   1   1   7   15.93    3.35
  -1  -1   7   19.46    3.52
   1   1   7   12.80    3.65
  -1   1  -7    9.39    5.16
  -1  -1   7   17.10    3.39
   1   1   7   18.36    3.39
   1   1   7   14.87    3.04
   1   1  -7   16.04    4.74
   1  -1   7   15.53    3.26
  -1   1   7   18.24    2.71
  -1   1   7   13.60    3.95
  -1   1   7   20.70    4.16
  -1   1   7   11.98    2.26
  -1   1   7   11.14    2.70
   1  -1   7   17.48    4.21
   1  -1   7   12.31    2.67
   1  -1   7   20.45    4.93
  -1  -2   7    5.32    2.34
  -1  -2   7    5.51    3.26
   1   2   7    5.06    3.15
   1   2   7    7.04    2.51
   1   2   7    6.27    5.10
  -1  -2   7    5.14    2.19
   1   2   7    8.15    2.17
   1   2   7    5.81    3.18
   1   2   7    6.99    1.85
  -1   2  -7    2.45    5.46
  -1   2   7    3.86    4.54
   1  -2   7    3.98    2.41
  -1   2   7    8.37    3.04
   1   2  -7    0.23    4.61
  -1   2   7    7.63    1.78
  -1   2   7    4.32    1.98
   1  -2   7    6.45    5.48
   1  -2   7    6.80    3.54
  -1   2   7   10.58    3.20
   1  -2   7    5.82    4.18
   1   2  -7    6.80    2.95
   1  -2   7    7.14    3.73
  -1   2   7    5.73    3.11
  -1   2   7    9.22    3.05
   1   3   7   10.40    2.29
   1   3   7   12.98    5.95
  -1  -3   7    3.99    2.63
  -1  -3   7   18.74    5.87
   1   3   7    3.79    2.93
   1   3   7    8.23    2.73
   1   3   7    7.28    2.17
  -1   3  -7   -1.48    6.57
   1   3   7    4.37    3.25
  -1   3   7    7.13    2.76
   1  -3   7   10.61    2.78
  -1   3   7    7.59    2.94
  -1   3   7    9.17    2.46
  -1   3   7    5.78    5.23
   1  -3   7    6.66    4.04
   1  -3   7    8.24    4.33
   1   3  -7    4.36    2.35
   1  -3   7    3.08    4.50
  -1   3   7    6.14    4.64
  -1   3   7    6.90    2.27
   1   3  -7    5.94    6.01
  -1   3   7    8.36    1.88
  -1  -4   7    5.99    3.30
  -1  -4   7   11.46    8.11
   1   4   7    6.63    4.65
   1   4   7    9.92    2.52
  -1   4  -7    1.98    2.53
   1   4   7    9.07    2.94
   1   4   7    8.97    2.36
   1   4   7   27.45    8.25
   1   4   7    8.47    3.43
  -1   4  -7    7.66    7.94
   1  -4   7    6.14    8.10
  -1   4   7    6.83    2.50
   1  -4   7    2.60    2.83
  -1   4   7    5.78    2.37
  -1   4   7    0.47    7.13
   1   4  -7   -1.95    7.33
  -1   4   7    7.64    2.96
  -1   4   7    6.89    2.14
   1   4  -7    4.91    2.25
   1   5   7    6.20    2.99
   1   5   7    6.74    2.73
   1   5   7   10.47    2.80
  -1   5  -7    2.54    2.19
  -1  -5   7    6.21    3.32
  -1  -5   7   25.88   13.11
   1   5   7   18.22   10.66
   1   5   7    3.39    2.11
  -1   5  -7    7.32   10.80
   1   5  -7    6.44    2.51
  -1   5   7   10.03    3.12
  -1   5   7    5.44    2.39
   1   5  -7   13.46   10.81
  -1   5   7   14.89   10.18
  -1   5   7    4.48    2.23
   1  -5   7    3.94    5.69
  -1   5   7    3.86    1.95
   1   5  -7    9.98    5.64
   1  -5   7    9.40    3.20
   1   6   7   11.77    3.04
   1   6   7    6.47    2.15
  -1   6  -7    8.05   15.28
   1   6   7    5.41    2.43
  -1  -6   7    0.46    3.00
  -1  -6   7   29.50   23.40
   1   6   7    5.04    2.25
  -1   6  -7    4.18    2.35
  -1   6   7    2.75    2.46
  -1   6   7    2.74    1.90
   1   6  -7    6.92    2.31
  -1   6   7    0.94    2.22
   1  -6   7    9.49    2.97
   1  -6   7   -3.75   26.11
  -1   6   7    7.64    2.29
   1   6  -7   -9.88   15.34
   1   7   7    9.31    2.09
  -1   7  -7   11.44    2.45
  -1  -7   7   13.42    2.71
   1   7   7   15.20    2.41
   1   7   7   11.22    2.41
  -1   7   7    9.65    2.37
   1  -7   7   11.34    2.44
  -1   7   7   16.98    3.08
   1   7  -7   10.26    2.35
  -1   7   7   15.64    2.49
   1  -8  -7    3.29    1.98
   1   8   7   -0.22    1.57
   1   8   7    0.68    1.28
  -1   8  -7   -1.34    1.18
  -1  -8   7   -2.23    1.89
  -1   8   7   -2.67    1.63
   1   8  -7    2.31    1.29
  -1   8   7   -2.42    2.01
  -1   8   7    1.32    1.95
  -2   0   7    9.07    1.86
   2   0   7   15.24    2.41
   2   0  -7    9.66    7.25
   2   0   7    9.65    4.09
   2   0   7    9.28    2.65
  -2   0   7    3.65    4.36
  -2   0   7   11.71    3.83
   2   0   7    8.23    3.67
   2   0   7   11.75    3.00
  -2  -1   7   29.22    4.46
  -2  -1   7   21.43    3.90
  -2  -1   7   27.69    3.46
   2   1   7   35.35    4.32
   2   1   7   25.52    3.94
   2  -1  -7   23.32    4.49
   2   1   7   29.63    5.39
   2   1   7   17.95    3.86
  -2  -1   7   20.79    5.20
  -2  -1   7   16.79    5.22
  -2   1  -7   29.56    7.32
   2   1   7   33.59    5.23
   2  -1   7   22.46    5.09
  -2   1   7   26.87    5.10
  -2   1   7   22.57    3.07
   2  -1   7   29.87    4.66
   2  -1   7   19.44    4.19
  -2   1   7   32.63    6.09
  -2   1   7   31.45    4.31
  -2  -1  -7   14.66   10.18
   2  -1   7   33.48    5.65
   2   1  -7   22.15    5.17
  -2   1   7   25.49    5.02
   2  -1   7   28.75    4.57
   2   2   7   26.77    3.94
   2   2   7   34.85    5.56
   2   2   7   24.49    3.27
  -2  -2   7   18.40    6.83
   2   2   7   22.38    3.66
   2   2   7   23.75    4.37
  -2   2  -7   21.39    7.57
  -2  -2   7   22.43    3.59
   2  -2  -7   13.68    5.15
  -2  -2   7   25.85    4.94
   2   2   7   25.37    4.21
  -2  -2   7   17.67    4.17
   2   2  -7   31.26    5.91
   2  -2   7   13.06    3.74
  -2   2   7   23.44    3.07
  -2   2   7   19.62    3.00
  -2   2   7   18.10    3.86
  -2   2   7   20.46    4.09
  -2   2   7   16.26    4.76
   2  -2   7   20.76    5.88
   2  -2   7   25.90    5.58
   2   2  -7   19.25    3.55
  -2   2   7   19.79    2.94
   2  -2   7   23.47    4.17
   2  -2   7   17.11    4.30
  -2   2   7   31.95    5.69
   2   3   7    3.75    2.50
   2   3   7   14.74    6.34
   2   3   7    3.67    2.00
  -2  -3   7    4.76    3.40
   2   3   7    2.05    2.33
  -2  -3   7   -2.26    4.45
   2   3   7    4.64    2.79
  -2   3  -7    8.01    8.51
   2   3   7    5.88    4.19
  -2   3   7    5.35    1.70
   2  -3   7    6.15    2.40
   2  -3   7   -0.06    4.67
  -2   3   7    3.16    2.48
   2   3  -7    5.13    3.87
  -2   3   7    8.53    5.94
  -2   3   7    9.41    3.70
   2   3  -7    8.42    6.30
  -2   3   7    7.46    4.55
   2  -3   7    4.78    4.04
   2  -3   7   -8.90    5.68
   2   3  -7    2.37    2.22
   2   4   7    1.62    2.62
   2   4   7    6.08    9.11
  -2  -4   7    1.71    7.41
   2   4   7   -0.98    4.72
   2   4   7   -2.72    2.33
  -2   4  -7   -1.91    9.48
  -2  -4   7    5.01    3.31
   2   4   7   -4.86    2.91
   2   4   7    0.17    2.01
  -2   4   7   -1.15    1.79
   2   4  -7    1.04    2.15
   2  -4   7   -2.06    2.50
   2  -4   7    2.33    4.68
  -2   4   7   -0.90    2.67
   2   4  -7    4.28    4.00
  -2   4   7   -0.53    3.43
   2  -4   7   -2.63    7.41
   2   4  -7   -6.80    7.39
  -2   4   7    0.50    1.89
  -2   4   7    2.81    7.35
   2  -4   7   -0.81    4.05
  -2  -5   7    6.45   14.09
  -2   5  -7    2.48    2.53
   2   5   7   -0.13    1.84
   2  -5  -7    1.73    3.52
   2   5   7   11.40   11.72
  -2  -5   7    2.47    3.27
   2   5   7    4.98    2.56
   2   5   7    3.88    2.56
  -2   5  -7    0.48   10.73
   2   5   7    7.20    2.80
   2  -5   7   -9.26   11.74
  -2   5   7    2.16    2.78
   2   5  -7    6.83    2.50
   2  -5   7   -0.87    4.20
  -2   5   7    3.08    2.96
   2   5  -7   -5.37    4.04
   2  -5   7    1.22    2.41
  -2   5   7    6.66    2.19
  -2   5   7    9.69   10.01
   2   5  -7    5.56    8.99
  -2   5   7   -0.94    1.74
   2   6   7    0.87    2.07
   2   6   7   -0.07    3.02
  -2   6  -7    2.85    2.20
   2   6   7    1.01    2.03
   2  -6  -7    6.91    4.31
  -2  -6   7    0.80    3.14
   2  -6   7    0.92    2.14
  -2   6   7    1.06    2.25
   2   6  -7    1.36    1.80
   2  -6   7    0.35    4.70
  -2   6   7    1.36    1.76
  -2  -7   7    2.02    2.17
  -2   7  -7    0.96    1.65
  -2  -7   7    3.52    1.83
   2   7   7    1.25    1.57
   2   7   7    1.66    1.55
   2   7   7    0.42    1.87
   2  -7   7   -0.06    1.58
  -2   7   7    0.23    1.99
  -2   7   7    3.84    2.02
   2   7  -7    3.45    1.75
  -2   7   7   -2.58    1.59
  -2   8  -7    1.23    1.46
   2   8   7   -0.23    1.32
  -2  -8   7    1.85    1.99
   2  -8  -7    1.19    1.56
   2   8   7    1.68    1.32
   2   8   7    1.18    1.43
   2  -8   7    0.15    1.23
  -2   8   7   -1.09    1.09
   2   8  -7    0.90    1.13
  -3   0  -7   -0.14    8.04
   3   0   7    5.87    3.46
   3   0   7   -0.64    3.25
  -3   0   7    2.94    3.01
  -3   0   7   -0.94    1.37
   3   0  -7   -3.35    3.23
   3   0   7    6.27    5.39
  -3   0   7    8.78    4.17
   3   0   7    1.99    2.53
   3   0   7   -0.64    2.01
   3   0   7    0.99    4.30
  -3  -1   7  106.67   10.91
   3   1   7  131.13    8.69
   3   1   7  117.62   11.51
   3   1   7  117.32   10.06
  -3  -1   7  104.64    8.22
   3   1   7  117.23    8.98
  -3  -1   7  128.94   10.50
   3  -1  -7  106.52    9.98
   3   1   7  116.63   10.26
  -3   1  -7  114.45   17.24
   3  -1   7  102.78   10.85
   3   1  -7   99.78    9.80
   3  -1   7  119.93   10.84
   3  -1   7  122.77    8.88
   3   1  -7  118.36   11.41
  -3   1   7  119.44   11.14
  -3   1   7  107.00    8.35
  -3  -1  -7  112.81   19.30
  -3   1   7  112.29   12.64
   3  -1   7  128.99   11.84
   3  -1   7  109.55   11.41
   3  -1   7  110.19    9.10
  -3   1   7  115.67    8.16
  -3  -2   7   18.38    5.34
   3  -2  -7    7.88    4.04
  -3  -2   7    3.73    4.43
   3   2   7   11.15    3.15
  -3  -2   7    5.95    1.81
   3   2   7    4.44    2.34
  -3  -2   7    5.62    4.09
   3   2   7    3.86    2.72
   3   2   7    7.31    1.95
   3   2   7   13.08    4.21
   3   2   7    3.33    4.52
  -3   2  -7   13.52    9.19
   3   2  -7    0.07    5.07
   3   2  -7    5.17    2.58
  -3   2   7    4.77    1.79
  -3   2   7    9.34    5.11
   3   2  -7    6.32    3.80
  -3   2   7   11.97    4.69
   3  -2   7    7.00    2.43
   3  -2   7    5.03    3.22
   3  -2   7   11.25    5.44
   3  -2   7   15.90    4.99
   3  -2   7   10.17    4.96
  -3   2   7    8.23    1.93
  -3  -3   7   35.55    5.85
  -3   3  -7   17.97   10.02
   3   3   7   37.28    4.79
   3   3   7   26.59    4.46
  -3  -3   7   17.34    6.23
   3   3   7   18.39    5.29
   3  -3   7   35.39    6.47
  -3   3   7   24.13    6.22
   3  -3   7   19.62    6.45
   3   3  -7   48.86    8.34
   3  -3   7   47.37    8.07
  -3   3   7   29.82    3.68
   3  -3   7   34.29    4.82
   3   3  -7   33.09    6.72
  -3   3   7   36.65    4.14
   3   3  -7   32.85    4.78
  -3   4  -7   -2.15   11.99
   3   4   7   -2.39    2.45
   3   4   7    0.42    2.03
   3   4   7    3.09    3.29
   3   4   7    3.22    3.85
  -3  -4   7   -1.95    2.99
   3  -4   7    1.04    3.69
   3  -4   7    1.05    2.11
   3  -4   7   -3.44    4.55
   3  -4   7    1.72    7.34
   3   4  -7    4.80    7.36
   3  -4   7   -4.93    6.67
  -3   4   7   -0.26    3.37
  -3   4   7    1.38    1.79
   3   4  -7    2.70    3.34
   3   4  -7    0.48    2.03
  -3   4   7   -0.85    1.81
  -3   4   7    4.97    3.59
  -3   4   7    2.63    7.20
   3  -5  -7   18.14    4.24
  -3   5  -7   23.39   13.51
   3   5   7   26.58    4.55
  -3  -5   7   25.81    4.45
   3   5   7   18.46    3.57
   3   5   7   14.67    2.88
  -3  -5   7   42.94   15.46
   3  -5   7   20.35    3.93
  -3   5   7   20.12    3.71
  -3   5   7   27.70   10.96
   3  -5   7   -7.03   10.13
  -3   5   7   14.31    2.70
   3   5  -7   23.29    3.93
   3  -5   7   11.04    4.02
   3   6   7    5.27    2.43
   3  -6  -7    4.03    3.79
  -3  -6   7    5.18    3.29
   3   6   7    3.44    3.08
   3   6   7    7.07    2.69
   3   6   7    3.17    2.24
  -3   6  -7    2.90    2.12
  -3   6   7    2.48    3.58
   3  -6   7    2.60    1.88
   3   6  -7    8.29    2.40
  -3   6   7    4.17    1.99
   3  -6   7    5.50    3.60
  -3   6   7    4.97    2.29
   3   7   7   12.23    2.30
   3   7   7    9.52    2.25
  -3   7  -7    9.21    2.17
  -3  -7   7   15.78    2.53
   3   7   7   14.96    2.43
  -3  -7   7   21.71    4.10
  -3   7   7   13.85    2.58
   3  -7   7   15.01    2.63
  -3   7   7    7.63    3.45
   3   8   7   -0.08    1.51
   3  -8  -7   -0.32    1.56
   3   8   7    0.76    0.99
  -3   8   7   -0.20    1.08
   3   8  -7    1.14    0.87
  -4   0   7   48.34    4.35
   4   0   7   52.85    5.47
  -4   0  -7   41.41   12.21
  -4   0   7   49.61    8.99
   4   0   7   44.99    6.45
   4   0   7   50.10    5.26
   4   0  -7   46.11    6.22
   4   0   7   52.49    8.86
   4   0   7   44.64    7.72
   4   1   7   10.35    4.69
   4   1   7   14.99    3.27
   4   1   7    9.92    4.45
   4   1   7   10.53    2.33
  -4   1  -7   25.02   11.80
   4  -1  -7   15.41    3.20
  -4  -1   7   16.61    3.41
  -4  -1   7    7.96    5.27
   4   1   7   13.35    4.64
  -4  -1  -7   20.31   13.47
   4  -1   7    3.29    6.59
   4  -1   7   13.47    4.75
  -4   1   7   17.20    4.88
   4  -1   7    4.85    3.53
  -4   1   7   10.95    2.06
   4   1  -7    7.15    4.69
   4  -1   7   10.39    2.67
   4   1  -7   11.50    5.69
  -4   1   7    9.00    1.78
   4   2   7    1.46    5.06
   4  -2  -7    3.51    3.77
   4   2   7    4.55    2.40
  -4  -2   7    3.44    1.95
  -4  -2   7    6.04    6.35
   4   2   7    5.46    2.67
   4   2   7    3.20    2.32
  -4   2  -7   32.08   12.83
   4  -2   7    6.75    3.00
  -4   2   7    2.26    1.67
   4   2  -7    5.04    2.85
   4   2  -7    8.45    5.80
   4  -2   7    7.50    3.40
   4  -2   7    0.12    4.79
   4  -2   7    4.34    5.50
   4  -2   7    3.19    3.29
  -4   2   7    1.00    5.62
   4  -2   7    3.83    4.71
  -4   2   7    5.83    1.71
   4   3   7   -1.72    2.32
   4   3   7    3.58    2.48
  -4   3  -7  -12.77   11.60
  -4  -3   7   -0.21    8.92
   4  -3  -7    0.91    3.15
   4   3   7    1.87    3.11
   4   3   7    3.38    2.65
   4  -3   7    2.49    4.99
   4   3  -7    1.62    2.02
   4   3  -7    1.99    3.36
   4  -3   7    2.09    2.29
  -4   3   7    2.35    1.62
  -4   3   7    2.94    1.66
   4   3  -7   -1.19    3.00
   4  -3   7    2.89    3.25
   4  -3   7    2.06    4.18
  -4   3   7    1.60    6.11
   4   4   7   24.12    3.56
   4  -4  -7   20.62    3.93
  -4   4  -7   17.93   13.40
   4   4   7   29.80    4.86
   4   4   7   22.14    3.46
   4   4  -7   25.36    3.89
  -4   4   7   26.13    3.68
   4  -4   7   25.35    9.53
   4   4  -7   29.82    8.95
  -4   4   7   24.70    3.69
   4   4  -7   27.40    4.54
   4   4  -7   23.39    4.14
   4  -4   7   16.36    4.07
   4  -4   7   16.04    5.41
   4  -4   7   28.64    4.13
   4  -4   7   26.38    5.20
  -4   4   7    7.93    7.88
   4  -5  -7    5.12    2.90
   4   5   7    5.95    2.39
   4   5   7    6.09    2.53
   4   5   7    7.21    5.11
   4  -5   7   11.18    2.96
   4  -5   7    5.24    3.64
   4   5  -7    8.95    2.21
  -4   5   7    6.17    2.00
   4   5  -7   14.38    4.95
  -4   5   7    5.48    2.96
   4   6   7   13.06    2.54
   4  -6  -7   11.84    3.03
   4   6   7   13.66    2.45
   4   6   7   15.52    2.51
  -4   6   7   14.83    2.28
   4   6  -7   14.75    3.09
   4  -6   7   11.27    2.17
   4  -6   7   19.65    3.64
   4   7   7    4.39    1.80
   4   7   7    2.87    2.01
  -4   7  -7    0.60    1.44
   4   7   7    0.36    2.01
  -4  -7   7    4.35    1.68
   4  -7  -7    2.86    1.72
   4   7  -7    1.58    1.34
  -4   7   7    2.10    1.34
   4  -7   7    7.19    2.82
   5   0   7   -1.26    2.21
   5   0  -7    0.95    2.54
  -5   0  -7   -7.40   15.76
  -5   0   7    0.13    5.70
   5   0   7    1.35    3.92
  -5   0   7   -0.39    1.85
   5   0  -7    3.86    3.65
   5   0   7   -1.99    3.51
  -5  -1   7   48.71    4.72
   5   1   7   46.83    7.06
   5  -1  -7   52.15    7.73
  -5  -1   7   66.61   12.04
   5   1   7   46.10    9.03
  -5   1  -7   60.19   21.62
   5   1   7   52.55    5.68
   5  -1  -7   43.89    5.96
   5   1  -7   56.74    7.06
   5  -1   7   50.68    8.53
  -5   1   7   49.03    4.58
   5   1  -7   48.67    5.84
   5  -1   7   50.68    6.10
   5  -1   7   49.62    9.15
  -5   1   7   49.63    4.47
  -5  -1  -7   44.99   21.88
   5   1  -7   50.54   11.87
  -5   1   7   35.63   10.03
   5   2   7    0.63    2.49
  -5  -2   7    1.50    1.81
   5   2   7    4.35    3.99
   5  -2  -7   -2.99    3.46
  -5   2  -7    5.97   15.47
   5   2   7    6.19    2.88
   5   2   7    1.59    2.76
  -5  -2   7  -11.31    7.50
   5  -2  -7    0.65    2.60
  -5   2   7   -2.00    1.64
   5   2  -7    0.58    2.16
   5   2  -7    0.59    2.43
   5  -2   7   -1.09    2.76
   5  -2   7    2.85    4.27
  -5   2   7   -8.08    6.14
   5   2  -7    3.51    7.82
   5  -2   7    5.60    4.65
  -5   2   7   -0.11    1.62
   5  -2   7    0.69    2.75
   5   3   7   26.03    5.23
  -5   3  -7   44.49   17.13
   5   3   7   25.89    4.90
   5   3   7   28.16    5.77
  -5  -3   7   33.64    4.30
   5  -3  -7   28.09    4.92
   5   3  -7   46.88    9.39
  -5   3   7   25.67    3.82
  -5   3   7   36.53    8.21
  -5   3   7   31.58    3.77
   5  -3   7   39.69    6.95
   5  -4  -7    6.02    3.15
   5   4   7    3.26    2.67
  -5  -4   7    8.70    2.66
   5   4   7    8.86    3.30
   5   4  -7    6.77   10.64
   5   4  -7    6.68    2.13
   5  -4   7   14.54    4.50
  -5   4   7    2.37    9.82
   5   4  -7   14.97    2.87
   5   4  -7    7.98    2.96
  -5   4   7    8.84    2.08
   5  -4   7    0.88    2.97
  -5   4   7   11.42    2.39
   5  -4   7    4.77    3.79
   5   5   7   80.44    7.31
   5   5   7   72.78    6.91
   5  -5  -7   70.31    6.88
   5  -5  -7   70.57    7.50
  -5  -5   7   84.14    6.71
   5   5  -7   78.69    7.14
   5  -5   7   77.96    7.59
  -5   5   7   66.87    6.00
   5   5  -7   80.99    6.39
   5   6   7    2.58    2.06
   5  -6  -7   -0.79    2.20
   5   6   7    5.36    2.78
  -5   6  -7   -0.37    1.51
  -5  -6   7   -0.01    1.63
   5  -6  -7    1.82    2.40
  -5   6   7   -1.78    1.34
   5  -6   7   -0.81    2.36
   5   6  -7    0.19    1.44
  -5  -7   7   36.95    2.98
  -5   7  -7   27.95    3.21
   5  -7  -7   31.12    3.46
  -5   7   7   26.75    2.79
   5   7  -7   33.97    2.99
   5  -7   7   28.55    3.76
   6   0   7   80.88   10.92
  -6   0   7   95.97    7.18
   6   0   7  101.78   10.44
  -6   0   7  105.28   15.69
   6   0  -7   96.68    9.60
   6   0  -7  105.15    8.32
   6   0   7   97.62    8.18
   6   0   7   82.91    9.43
  -6   1  -7   31.13   19.93
   6   1   7    1.74    2.71
  -6  -1   7   13.06    8.67
   6   1   7    0.10    3.99
   6   1   7    6.76    4.38
   6  -1  -7   -1.17    2.91
   6  -1  -7    3.61    2.30
  -6  -1   7    2.39    1.63
   6   1   7    6.77    3.02
  -6  -1  -7   53.66   36.56
   6  -1   7    4.30    2.80
  -6   1   7    3.18    1.76
   6  -1   7   -2.74    3.76
   6  -1   7    1.22    2.77
   6   1  -7    8.05    3.29
   6  -1   7    4.55    4.13
  -6   1   7    0.05    8.08
   6   1  -7    5.01    2.25
  -6   1   7    1.80    1.54
  -6  -2   7   44.31   11.47
   6   2   7   17.63    3.58
   6  -2  -7   27.72    4.48
   6   2   7   25.20    4.36
   6  -2  -7   25.44    4.35
  -6  -2   7   26.29    3.60
  -6   2  -7   44.21   21.06
   6  -2   7   26.79    5.81
  -6   2   7   27.67    3.50
   6   2  -7   27.60    4.88
   6  -2   7   17.78    3.74
   6  -2   7   29.12    4.46
   6   2  -7   31.38    4.18
   6   2  -7    6.17   13.39
  -6   2   7   19.33    8.71
   6  -2   7   26.73    4.82
  -6   2   7   19.36    3.60
   6  -3  -7   -1.18    2.55
   6   3   7    4.44    3.67
  -6  -3   7    2.39    2.01
   6   3   7    1.56    3.97
   6  -3   7    1.54    3.89
   6  -3   7    3.22    3.14
  -6   3   7    1.41    1.50
   6   3  -7    0.67    1.79
   6   3  -7    0.90    2.45
   6  -3   7    4.48    3.33
   6  -4  -7   47.51    6.03
  -6  -4   7   52.58    5.06
   6  -4   7   35.00    7.16
   6  -4   7   49.75    7.30
  -6   4   7   44.15    4.49
   6   4  -7   55.83    5.62
   6  -4   7   49.86    6.06
   6   4  -7   58.74    4.96
  -6  -5   7    5.57    1.87
   6  -5  -7    4.90    2.33
  -6   5   7    4.29    1.53
   6  -5   7    8.52    2.84
   6   5  -7    7.19    1.62
  -6   6  -7   10.55    2.00
   6  -6  -7    9.43    2.92
  -6  -6   7   15.86    2.77
   6   6  -7   14.18    2.82
  -6   6   7    6.69    1.63
   7   0  -7    0.40    1.91
   7   0   7    4.31    4.27
   7   0  -7    2.69    3.29
  -7   0   7    2.52    1.66
   7   0   7   -4.16    3.62
   7   0   7    1.68    3.07
   7   0   7    3.37    3.15
  -7   0   7    0.85    1.97
   7   1   7   85.86    7.77
   7   1   7   77.37    8.44
   7   1   7   95.78   10.32
  -7  -1   7   84.17    6.59
   7  -1  -7   81.82    8.59
   7   1  -7   85.60    7.28
  -7   1   7   84.90    6.67
   7  -1   7   88.64    9.49
   7  -1   7   82.24    8.85
   7  -1   7   91.67    7.71
  -7  -2   7   -1.14    1.59
   7  -2  -7   -1.47    2.44
   7   2   7    2.20    3.41
   7   2   7    0.67    2.57
   7  -2  -7   -1.33    2.32
   7   2   7   -2.09    3.85
   7  -2   7    1.93    2.32
   7  -2   7    0.50    2.56
   7  -2   7   -0.01    3.34
   7  -2   7   -0.28    3.02
   7   2  -7   -1.43    2.17
   7   2  -7   -0.73    2.10
  -7   2   7    2.15    1.40
   7  -3  -7   33.21    5.05
  -7  -3   7   32.19    3.71
   7  -3   7   32.96    4.74
   7   3  -7   29.49    3.86
   7  -3   7   40.63    6.49
   7  -3   7   36.74    5.50
  -7   3   7   30.93    3.46
   7   3  -7   30.26    4.41
   7  -4  -7    1.64    1.87
  -7  -4   7    0.22    1.53
   7   4  -7    2.91    2.01
   7  -4   7    5.15    2.18
  -7   4   7    0.83    1.16
   7  -4   7   -2.48    2.83
   7   4  -7    0.16    1.60
   7  -4   7    3.22    2.52
  -7  -5   7   18.34    2.58
  -7   5  -7   20.52    3.24
   7  -5   7   23.12    4.43
  -7   5   7   23.79    2.54
   7   5  -7   26.54    2.87
   8   0   7   45.57    6.39
   8   0   7   50.89    6.14
   8   0   7   41.53    5.19
  -8   0   7   52.13    4.28
   8   0  -7   53.16    4.89
   8  -1  -7    1.28    1.97
   8  -1  -7   -2.27    2.41
   8   1   7    0.42    2.25
   8   1   7    0.18    2.48
  -8  -1   7    1.13    1.28
   8  -1   7   -2.02    2.64
   8  -1   7   -1.76    2.71
   8   1  -7   -1.24    1.61
   8  -1   7   -2.68    2.10
   8  -1   7   -2.13    2.65
  -8   1   7    2.02    1.39
  -8  -2   7   58.53    5.98
   8   2   7   61.72    6.24
   8  -2  -7   56.85    5.68
   8  -2  -7   60.31    5.73
   8   2   7   53.56    8.11
   8   2  -7   52.14    7.05
  -8   2   7   52.74    4.46
   8   2  -7   53.72    4.94
   8  -2   7   53.09    5.91
   8  -2   7   50.85    5.29
   8  -2   7   54.21    6.18
   8  -3  -7   26.90    3.67
  -8  -3   7   15.53    2.85
   8  -3   7   27.43    4.13
   8  -3   7   23.07    3.95
   8   3  -7   22.17    3.28
  -8   3   7   15.18    2.38
   8   3  -7   21.38    3.16
   8  -4  -7   26.26    3.80
   8  -4   7   27.03    3.83
   8  -4   7   34.87    4.47
  -8   4   7   31.26    2.70
   8   4  -7   24.42    3.07
   8   4  -7   30.15    3.91
   9   0   7   -0.17    2.88
   9   0  -7    1.73    1.63
   9   0   7    5.92    2.16
  -9   0   7   -1.17    1.31
   9   1   7   10.96    3.59
  -9  -1   7   15.34    2.15
   9   1   7    8.08    2.52
   9  -1  -7   11.19    2.16
   9   1  -7   11.50    2.36
   9  -1   7    7.94    2.04
   9  -1   7   16.58    2.88
  -9   1   7   12.88    2.17
  -9  -2   7    2.65    1.29
   9   2  -7    4.12    1.53
  -9   2   7    2.46    1.08
   9  -2   7    1.56    1.79
   0   0   8   45.28    6.24
   0   0   8   29.90    5.47
   0   0   8   37.36    4.23
   0   0   8   42.84    4.42
   0   0   8   41.03    7.03
   0   1   8    2.37    2.60
   0   1   8   -0.12    3.16
   0   1  -8   -7.30    5.75
   0  -1   8    2.21    1.97
   0   1   8    4.30    2.76
   0  -1   8    3.83    3.44
   0   1   8   -0.09    1.79
   0  -1   8   -1.18    3.98
   0   1   8    0.80    1.62
   0  -1   8   -1.22    1.91
   0  -1   8   -4.61    3.42
   0   2   8  283.40   18.80
   0  -2   8  287.44   18.71
   0   2  -8  246.04   22.99
   0  -2   8  254.47   21.14
   0   2  -8  236.52   19.00
   0  -2   8  262.40   18.45
   0   2   8  307.23   19.75
   0   2   8  290.72   20.07
   0   2   8  293.00   18.40
   0  -2   8  295.34   21.01
   0  -2   8  273.41   19.58
   0  -3   8   11.01    7.65
   0   3   8   17.09    8.39
   0   3   8   -0.51    1.75
   0   3   8   -0.61    3.82
   0   3  -8    2.60    3.29
   0   3   8    0.26    2.70
   0   3  -8    3.71    7.86
   0   3   8   -0.55    2.84
   0  -3   8   -1.10    2.49
   0   3   8   -0.35    1.82
   0  -3   8    1.14    2.53
   0   4   8   88.94    7.03
   0   4   8   60.91   12.01
   0  -4   8   94.94    7.53
   0   4   8   88.86    7.36
   0   4   8   92.45    7.59
   0   4  -8   75.29    7.66
   0  -4   8   72.17   13.53
   0   4  -8   75.88   12.91
   0  -4   8   88.04    8.15
   0   4   8   85.76   18.32
   0   4   8   91.94    8.04
   0   5   8   -3.96    2.26
   0   5   8    1.20    2.63
   0  -5   8   -1.79    2.95
   0   5   8    2.48    2.08
   0  -5   8   16.56   15.88
   0   5   8    1.52    1.92
   0   5   8   -7.99   13.88
   0   5  -8   -2.65    4.13
   0   5  -8  -13.14   11.54
   0   5  -8   -0.67    2.41
   0  -6   8  165.69   12.11
   0   6   8  158.82   11.43
   0   6  -8  167.37   11.88
   0   6   8  175.37   11.73
   0   6   8  148.86   11.60
   0   6   8  155.77   11.99
   0   7  -8    0.46    1.40
   0   7   8   -1.87    1.51
   0  -7   8    0.52    1.80
   0   7   8   -0.31    1.52
   0   7   8   -1.62    1.59
   0   8  -8   29.18    2.71
   0   8   8   27.42    2.87
   0   8   8   29.20    3.20
   0  -8  -8   35.68    3.62
   0   8   8   26.46    2.91
   0  -8   8   23.90    2.85
  -1   0   8   -1.05    1.69
   1   0   8    2.79    2.51
  -1   0   8    3.12    2.87
  -1   0   8    2.61    1.90
  -1   0   8    1.40    3.89
   1   0   8    0.18    3.87
  -1   0   8    3.54    3.58
   1   0   8   -0.58    3.09
   1   0   8    7.26    3.33
   1   0   8   -0.08    1.78
   1   0   8    0.11    2.10
   1   1   8  129.74    9.91
   1   1   8  136.83   11.59
   1   1   8  149.17    9.90
  -1  -1   8  136.09    9.91
   1   1   8  140.86   10.36
  -1   1  -8  114.19   15.36
  -1  -1   8  129.27   12.18
   1   1   8  163.51   12.12
  -1  -1   8  128.19    9.71
  -1  -1   8  137.49   11.82
   1   1   8  146.29   11.40
  -1   1   8  139.01   11.45
   1   1  -8  125.20   13.97
  -1   1   8  150.22    9.91
   1  -1   8  141.17   10.05
   1  -1   8  145.79   12.61
  -1   1   8  129.26    9.65
   1  -1   8  138.99   12.06
   1  -1   8  133.45   10.05
  -1   1   8  141.01   10.77
  -1   1   8  119.51   13.32
  -1   1   8  141.17   11.50
   1  -1   8  133.80   10.61
   1  -1   8  135.59   12.02
   1   2   8   16.61    3.02
   1   2   8   18.13    3.42
   1   2   8   14.82    2.55
   1   2   8    4.09    3.30
  -1  -2   8    7.37    2.20
  -1   2  -8    9.91    3.43
   1   2   8    8.24    2.30
  -1  -2   8   13.03    2.65
  -1  -2   8   14.63    4.72
  -1   2   8   11.52    6.20
  -1   2   8    6.31    3.47
  -1   2   8   11.27    3.40
   1   2  -8   15.56    6.60
  -1   2   8   10.87    3.19
   1   2  -8   11.13    3.02
   1  -2   8   12.72    3.84
   1  -2   8    9.97    2.60
   1  -2   8   14.11    4.37
   1  -2   8   10.83    4.25
  -1   2   8    8.94    2.10
  -1   2   8   10.59    2.43
   1  -2   8    6.34    5.13
   1   3   8  154.26   10.73
  -1  -3   8  134.01   10.77
   1   3   8  153.82   11.59
   1   3   8  148.37   13.43
  -1   3  -8  158.99   18.99
   1   3   8  155.70   10.70
  -1  -3   8  147.19   11.14
   1   3   8  156.45   11.09
  -1  -3   8  129.90   15.58
   1  -3   8  150.22   12.89
  -1   3   8  154.38   10.78
   1   3  -8  130.09   16.87
  -1   3   8  148.80   10.38
   1   3  -8  129.28   11.02
  -1   3   8  137.55   16.78
   1  -3   8  144.37   11.18
  -1   3   8  147.74   13.31
  -1   3   8  147.49   11.65
   1  -3   8  140.06   15.85
  -1   3   8  146.12   11.34
   1   4   8   18.73    3.26
   1   4   8    6.73    5.65
   1   4   8   15.40    3.27
   1   4   8   19.23    3.05
   1   4   8   19.30    3.35
  -1  -4   8   17.70    3.10
   1   4   8   20.95    3.17
  -1  -4   8   26.66    5.34
  -1  -4   8   21.05   10.45
  -1   4  -8    7.48   11.51
  -1   4   8   19.69    3.39
   1   4  -8   18.23    4.39
   1  -4   8   19.75   10.56
  -1   4   8   17.14    2.97
  -1   4   8   15.92    3.72
   1   4  -8   20.60    4.30
  -1   4   8   19.04    3.08
   1  -4   8   16.59    4.82
   1  -4   8   16.74    3.53
  -1   4   8   12.33   10.56
   1   4  -8   32.79    9.90
  -1   5  -8   38.66    5.47
   1   5   8   42.52    5.03
  -1  -5   8   50.88   16.25
  -1  -5   8   40.06    5.06
   1   5   8   43.60    5.87
   1   5   8   43.78    5.49
  -1  -5   8   42.85    6.62
   1   5   8   29.66    4.84
  -1   5  -8   36.03   13.81
   1   5  -8   37.80    5.22
   1  -5   8   49.96    9.47
   1   5  -8   54.67    7.99
  -1   5   8   41.27   13.56
  -1   5   8   41.84    5.77
  -1   5   8   34.76    4.84
   1  -5   8   45.80    5.88
  -1   5   8   44.61    4.49
   1   5  -8   33.30   11.73
  -1   5   8   36.92    4.90
  -1   6  -8    2.09    2.21
   1   6   8   -0.51    1.94
   1   6   8    2.80    2.81
   1   6   8    0.85    1.98
   1  -6  -8   -1.76    4.99
  -1  -6   8   -1.95    2.68
   1   6   8    3.42    2.39
  -1  -6   8   -3.72    2.07
   1  -6   8    0.17    2.17
  -1   6   8    3.30    2.13
  -1   6   8   -0.17    2.33
  -1   6   8    4.21    2.14
  -1   6   8   -2.31    1.89
   1   6  -8   -1.42    1.80
   1   7   8   51.92    4.76
  -1   7  -8   52.79    4.88
  -1  -7   8   67.36    5.33
   1   7   8   60.01    4.85
   1   7   8   58.67    4.94
  -1   7   8   56.34    4.87
  -1   7   8   52.92    4.75
   1   7  -8   57.85    5.05
   1  -7   8   58.73    4.91
  -1   7   8   53.90    5.27
   1   8   8    2.10    1.00
  -1   8  -8    1.55    1.14
  -1  -8   8    3.33    1.31
  -1   8   8    0.79    1.20
   1  -8   8    0.08    1.13
   2   0   8  326.95   20.05
  -2   0   8  290.62   21.30
  -2   0   8  296.16   19.67
   2   0   8  317.96   21.97
  -2   0   8  302.11   19.85
  -2   0   8  287.89   21.13
  -2   0   8  276.83   22.16
   2   0   8  307.67   21.51
   2   0   8  296.75   20.20
   2   0   8  291.53   21.38
   2   1   8   20.07    4.48
   2   1   8   16.07    2.54
   2   1   8   15.13    3.07
  -2  -1   8   20.39    2.97
   2   1   8   15.65    2.90
  -2  -1   8   16.37    4.15
   2   1   8   12.57    3.76
  -2  -1   8   15.78    4.49
   2  -1  -8   19.17    4.23
   2   1   8   18.86    4.65
  -2  -1   8   16.43    3.17
  -2   1  -8   26.43    9.02
  -2   1   8   16.10    3.03
   2  -1   8   10.73    2.76
  -2   1   8   25.43    5.79
   2  -1   8   20.48    3.90
  -2   1   8   21.26    3.61
  -2   1   8   19.48    3.71
   2   1  -8   12.98    6.66
   2  -1   8   26.41    5.25
   2  -1   8   15.59    4.78
  -2   1   8   18.78    4.69
   2  -1   8   14.99    4.68
  -2  -2   8  240.98   19.04
  -2   2  -8  203.04   23.72
   2   2   8  256.25   19.10
   2  -2  -8  207.31   18.03
   2   2   8  237.96   16.87
   2   2   8  269.32   18.60
  -2  -2   8  252.91   17.01
   2  -2   8  284.89   18.21
  -2   2   8  268.09   20.18
   2  -2   8  250.84   19.57
   2   2  -8  266.99   21.40
   2  -2   8  242.01   19.63
  -2   2   8  258.17   16.93
   2   2  -8  247.67   17.35
  -2   2   8  231.71   16.93
  -2   2   8  243.63   17.87
  -2   2   8  261.06   18.62
   2   3   8   20.57    5.30
  -2   3  -8    5.59    9.66
  -2  -3   8   21.88    4.23
   2   3   8   18.28    3.01
  -2  -3   8    8.39    6.13
   2   3   8   23.06    3.71
  -2  -3   8   15.90    3.15
   2   3   8   12.46    2.99
   2   3   8   16.79    2.82
  -2   3   8   17.40    4.12
  -2   3   8   15.96    3.15
   2  -3   8   20.85    7.06
   2   3  -8   11.51    3.94
   2  -3   8   13.52    4.43
   2  -3   8   17.13    3.09
  -2   3   8   30.14    8.16
  -2   3   8   17.86    3.13
  -2   3   8   15.77    2.74
  -2   3   8   15.39    5.36
   2   3  -8   22.20    3.33
   2  -3   8   11.58    5.91
   2  -3   8   15.52    4.05
   2   3  -8   17.03   10.41
  -2   4  -8   52.42   14.03
  -2  -4   8   58.91    6.66
   2   4   8   54.03    8.26
  -2   4  -8   56.61    6.34
   2   4   8   63.49    6.45
  -2  -4   8   42.28   10.33
   2   4   8   55.99    6.05
   2   4   8   55.67    6.75
   2   4   8   57.78    5.76
  -2  -4   8   59.82    6.33
  -2   4   8   63.19    5.81
  -2   4   8   67.12    5.25
   2   4  -8   58.05    6.09
   2  -4   8   47.05    8.50
   2  -4   8   58.00    6.46
   2   4  -8   74.29    8.12
  -2   4   8   41.10   10.93
  -2   4   8   50.93    6.03
   2   4  -8   77.61   12.78
  -2   4   8   72.05    7.09
   2  -4   8   71.81   11.71
  -2  -5   8    0.39   15.44
   2   5   8    3.92    2.84
   2   5   8    2.69    2.22
   2  -5  -8    1.91    3.59
  -2  -5   8    2.04    2.57
  -2   5  -8   18.27   14.93
  -2  -5   8    7.81    3.19
   2   5   8    6.24    2.71
   2   5   8    3.18    2.40
  -2   5  -8    2.16    2.54
   2   5  -8   -1.90    3.78
  -2   5   8    3.26    1.87
   2   5  -8    9.37    2.28
  -2   5   8    9.98   12.55
   2  -5   8   -0.65   13.71
   2  -5   8    1.94    4.60
  -2   5   8    7.55    2.86
   2  -5   8    6.84    2.76
   2   5  -8   31.39   11.12
  -2   5   8    5.64    2.71
   2   6   8   26.02    3.99
   2  -6  -8   29.19    4.71
   2   6   8   32.33    4.10
  -2  -6   8   32.92    4.08
  -2  -6   8   34.01    5.33
  -2   6  -8   24.73    4.49
   2   6   8   32.57    4.16
   2   6   8   34.97    4.29
  -2   6   8   25.68    4.47
   2   6  -8   30.40    4.20
   2  -6   8   24.13    6.52
  -2   6   8   31.29    3.89
  -2   6   8   32.92    4.01
   2  -6   8   33.00    4.37
  -2  -7   8   -1.34    1.91
   2   7   8   -0.75    1.29
  -2   7  -8   -0.29    1.49
   2   7   8    0.80    2.42
   2   7   8    1.80    1.47
  -2   7   8   -1.49    2.27
  -2   7   8    0.52    1.47
   2  -7   8    0.82    1.38
  -2   7   8    0.29    1.48
   2   7  -8    0.91    1.52
   2  -8  -8   14.01    2.60
   2   8   8   15.02    2.31
  -3   0   8    0.32    2.23
  -3   0   8    4.47    5.92
   3   0   8    8.08    4.34
  -3   0  -8   -8.26   11.81
  -3   0   8  -10.17    5.34
   3   0  -8   -1.49    3.72
   3   0   8    1.43    2.06
  -3  -1   8  183.53   13.14
  -3  -1   8  169.81   17.80
  -3   1  -8  147.16   24.36
  -3  -1   8  177.98   13.52
   3  -1  -8  184.74   14.48
   3   1   8  192.98   15.81
   3   1   8  198.87   13.70
  -3  -1   8  180.84   15.57
   3   1   8  211.03   14.70
   3   1   8  214.67   14.83
  -3   1   8  186.00   13.26
   3  -1   8  196.77   13.95
  -3   1   8  213.74   17.47
   3  -1   8  200.00   16.23
  -3   1   8  201.16   16.64
   3  -1   8  203.46   16.19
  -3   1   8  182.83   13.04
   3   1  -8  194.12   14.58
   3  -1   8  212.84   16.37
  -3  -2   8    9.69    2.18
   3  -2  -8    3.66    5.99
  -3   2  -8    6.62   11.46
   3   2   8   19.54    4.47
   3   2   8   20.30    3.55
  -3  -2   8   12.45    5.81
  -3  -2   8   17.69    4.50
   3   2   8   22.26    4.27
   3   2   8   25.51    5.61
   3   2   8   14.49    3.48
   3  -2   8   12.49    5.55
  -3   2   8   10.15    2.29
   3  -2   8   10.51    3.81
   3  -2   8    4.02    4.04
   3   2  -8   20.14    7.57
   3   2  -8   14.84    3.86
  -3   2   8   17.14    6.43
   3  -2   8   14.25    2.79
  -3   2   8   15.31    2.83
  -3   2   8   13.13    6.12
   3  -2   8   18.20    5.49
   3   2  -8   21.23    4.08
  -3   2   8   34.92    9.47
  -3  -3   8   82.28    6.98
   3   3   8   74.73    6.98
   3   3   8   81.13    6.77
  -3   3  -8   45.51   13.84
   3   3   8   64.54   11.85
   3   3   8   75.04    6.88
  -3  -3   8   71.70    7.49
   3   3   8   81.52    7.81
  -3   3   8   83.90    6.08
   3  -3   8   60.11   10.38
  -3   3   8   80.30    6.43
   3   3  -8   81.79    6.86
   3  -3   8   53.44   11.13
   3   3  -8   97.46   15.02
  -3   3   8   69.87    7.92
   3  -3   8   76.73    9.80
  -3   3   8   70.30    8.84
   3  -3   8   79.64    7.06
  -3   3   8   58.58    9.29
   3   3  -8   82.31    8.49
   3  -3   8   67.94    8.35
   3   4   8    0.83    2.79
  -3  -4   8   -9.66   12.74
  -3   4  -8  -12.67   12.94
  -3  -4   8    1.15    2.93
   3   4   8   -0.88    2.57
   3   4   8    2.14    2.61
  -3  -4   8    1.64    3.10
   3   4   8   -0.39    2.03
   3  -4   8    1.27    2.26
  -3   4   8    8.25   14.40
   3  -4   8   11.79    9.04
   3  -4   8    4.31    3.87
   3   4  -8    0.40    3.34
   3  -4   8   -0.92    3.55
  -3   4   8    5.38    3.48
   3   4  -8    9.84    9.40
   3   4  -8   -0.22    2.01
  -3   4   8    3.59    3.16
  -3   4   8    1.83    1.95
  -3   4   8   -0.34    1.69
  -3   5  -8   34.81    4.97
   3   5   8   45.98    5.21
   3   5   8   39.51    5.74
   3  -5  -8   34.44    6.97
  -3  -5   8   37.00    5.30
  -3  -5   8   41.15    8.42
   3   5   8   37.85    4.78
   3  -5   8   46.38    7.51
   3   5  -8   48.41    4.80
  -3   5   8   43.85    4.44
  -3   5   8   38.10    4.31
   3  -5   8   38.86    5.10
  -3  -6   8    4.78    1.85
   3  -6  -8    8.04    3.38
   3   6   8    3.44    3.00
   3   6   8    1.95    3.40
   3   6   8    8.02    2.30
   3   6   8    4.69    2.03
  -3  -6   8    1.46    2.83
  -3   6  -8    5.98    2.02
  -3   6   8    2.84    1.59
   3  -6   8    4.68    3.61
  -3   6   8    4.60    1.99
   3   6  -8    3.92    1.85
   3  -6   8    5.23    1.79
  -3   7  -8   14.37    2.40
  -3  -7   8   12.05    2.04
  -3  -7   8   13.25    2.78
   3   7   8   19.71    2.85
   3  -7  -8   12.59    2.06
   3   7   8   13.53    2.41
  -3   7   8   14.43    2.22
   3  -7   8   14.30    2.21
  -3   7   8   12.53    4.10
   3   7  -8   16.78    2.39
  -4   0   8   93.44   14.42
   4   0   8   93.15   11.13
   4   0  -8   91.81    8.67
   4   0   8   70.26   10.77
  -4   0   8   91.35    7.03
   4   0   8   93.33    8.01
   4   0   8   97.54   12.02
   4   0   8  100.26    9.96
   4   0   8  102.03    7.63
  -4   0  -8  123.08   22.69
  -4   0   8   91.68    7.28
  -4  -1   8   18.27    2.72
   4   1   8   15.30    3.66
   4   1   8   14.28    2.96
   4   1   8   10.55    4.44
  -4   1  -8    9.08   16.65
   4   1   8   13.24    5.93
  -4  -1   8   24.99    8.48
   4  -1  -8   15.51    3.21
   4  -1   8   18.23    4.92
   4   1  -8   19.25    3.93
  -4   1   8   29.60    7.26
   4  -1   8   11.78    3.33
  -4   1   8   19.65    2.92
   4   1  -8   17.91    4.91
   4  -1   8   10.92    4.75
   4  -1   8   22.03    6.25
  -4   1   8   13.63    2.38
   4  -1   8   19.64    3.96
   4  -2  -8   38.29    6.02
  -4  -2   8   36.01    4.43
   4   2   8   46.20    6.17
   4   2   8   42.03    4.96
  -4   2  -8   61.64   16.68
   4   2   8   38.62    7.83
   4   2   8   34.84    5.09
   4   2   8   39.08    5.70
  -4   2   8   40.13    3.99
  -4   2   8   34.69    7.18
   4  -2   8   49.58    8.27
  -4   2   8   37.55    4.24
   4   2  -8   43.11    6.42
   4   2  -8   46.34    5.26
   4  -2   8   30.19    7.96
   4  -2   8   43.10    4.74
   4   2  -8   50.21   11.06
   4  -2   8   40.11    5.96
   4   3   8    6.16    2.67
   4   3   8  -12.82    7.64
  -4   3  -8   24.75   15.85
   4   3   8    2.05    2.17
   4   3   8    3.63    2.51
   4  -3  -8   -1.83    3.31
  -4  -3   8    5.38    2.23
   4   3   8    6.76    3.39
  -4   3   8    8.41    7.73
   4  -3   8    0.96    4.23
  -4   3   8    4.16    2.02
   4   3  -8   -4.13   10.36
   4   3  -8    2.49    2.10
   4  -3   8   11.82    8.65
   4  -3   8    8.47    3.96
   4  -3   8    6.47    4.08
  -4   3   8    2.71    1.57
   4  -3   8    2.72    2.02
   4   3  -8    6.03    3.15
   4   4   8   81.15    7.27
   4  -4  -8   91.31    8.82
   4   4   8   84.10    7.84
   4   4   8   70.46    6.92
  -4   4  -8   80.76   19.50
  -4  -4   8   79.13    7.28
   4   4   8   68.08    6.85
   4   4  -8   90.70    6.70
  -4   4   8   64.10   12.79
  -4   4   8   79.43    6.21
  -4   4   8   77.25    6.45
   4  -4   8   56.94   10.38
   4   4  -8   90.54    7.79
   4   4  -8   87.97   19.20
   4  -4   8   74.85    8.47
   4  -4   8   84.59    6.52
  -4  -5   8    9.86    2.71
   4   5   8   12.91    2.76
   4   5   8   16.88    2.72
   4   5   8   13.24    3.14
   4  -5  -8   13.35    3.06
   4   5  -8   13.34    3.10
  -4   5   8   10.32    2.52
  -4   5   8   12.83    2.31
   4  -5   8   10.25    2.12
   4  -5   8   18.65    4.06
   4   5  -8   16.56    3.45
   4   6   8   36.44    4.12
  -4   6  -8   25.81    3.81
  -4  -6   8   32.67    3.88
   4  -6  -8   36.33    5.23
   4   6   8   30.36    3.83
  -4   6   8   35.13    5.53
  -4   6   8   32.43    3.38
   4  -6   8   38.50    3.47
   4  -6   8   41.60    5.09
   4   6  -8   42.14    3.80
  -4   7  -8    0.14    1.30
  -4  -7   8   -1.89    1.33
   4   7   8   -0.93    1.89
   4   7   8    4.47    1.77
  -4   7   8    0.39    1.09
  -5   0   8    1.03    1.54
   5   0   8    4.50    4.84
   5   0  -8   -3.06    2.47
   5   0  -8   -0.83    3.44
   5   0   8   -2.93    3.46
   5   0   8   -0.33    4.20
  -5   0   8   -2.73    9.42
   5   0   8   -0.23    2.23
  -5   0  -8   -7.94   28.82
   5   0   8    3.99    2.42
  -5   0   8    1.62    1.60
   5   1   8   36.50    6.35
   5  -1  -8   34.43    5.35
  -5   1  -8   67.65   36.70
   5   1   8   37.68    5.34
  -5  -1   8   32.72    9.99
   5   1   8   39.30    7.99
   5  -1  -8   48.03    7.19
  -5  -1   8   41.42    4.16
   5   1   8   40.19    5.14
  -5   1   8   41.69    4.03
  -5   1   8   42.42    4.17
   5  -1   8   37.36    6.54
  -5   1   8   33.88    9.66
   5  -1   8   34.29    5.13
   5  -1   8   49.38    5.89
   5   1  -8   42.71    5.72
   5  -2  -8    5.86    2.64
   5   2   8    0.74    2.48
  -5   2  -8    7.76   20.42
   5   2   8    5.80    2.63
   5   2   8   -1.30    3.74
   5   2   8    2.15    2.61
  -5  -2   8   -9.18   12.94
  -5  -2   8    6.14    2.28
   5  -2  -8    2.46    3.52
  -5   2   8    2.06    1.63
   5   2  -8    8.77    2.77
   5  -2   8   11.52    5.03
  -5   2   8    8.36    7.93
  -5   2   8    3.26    1.68
   5   2  -8    4.20    2.51
   5  -2   8   -1.80    4.28
   5  -2   8    1.13    2.95
   5  -2   8    2.62    2.39
   5  -3  -8   41.74    6.55
   5   3   8   42.08    5.14
   5   3   8   40.42    5.68
  -5  -3   8   42.04    4.77
   5   3   8   42.42    5.28
  -5   3  -8   26.01   18.47
   5  -3   8   29.63    5.30
  -5   3   8   41.93    4.09
  -5   3   8   44.46   10.55
  -5   3   8   35.41    4.11
   5  -3   8   42.60    8.11
   5   3  -8   34.76    4.60
   5   3  -8   49.11    5.52
   5   4   8    7.30    3.12
   5  -4  -8    4.14    2.49
  -5  -4   8   -2.59    2.13
   5  -4   8    0.51    3.81
   5  -4   8    0.41    3.30
   5  -4   8   -5.39    2.97
   5   4  -8    2.35    2.60
  -5   4   8    1.57    2.04
   5   4  -8   -3.04    1.83
  -5   4   8    1.05    1.46
   5  -5  -8   67.28    6.31
   5   5   8   54.08    5.71
   5  -5  -8   60.55    5.73
  -5  -5   8   66.05    5.49
   5   5  -8   62.97    5.14
   5  -5   8   57.33    6.13
   5   5  -8   53.83    5.81
  -5   5   8   55.90    4.93
   5  -6  -8    0.05    2.18
  -5  -6   8    2.15    1.39
  -5   6  -8   -1.15    1.39
   5  -6  -8   -1.28    2.53
   5   6  -8   -0.53    1.13
  -5   6   8    1.18    1.20
  -6   0   8   91.93    6.80
   6   0  -8   95.04    7.84
   6   0   8   94.26    9.67
   6   0  -8   97.17    9.27
   6   0   8   66.54   10.11
   6   0   8   97.29    7.89
  -6   0   8   88.99    6.95
  -6   0   8  133.98   21.00
   6   0   8   77.33    8.99
  -6  -1   8    7.08    1.87
   6   1   8    9.33    7.44
   6   1   8   -2.75    3.92
   6  -1  -8    4.60    2.81
   6   1   8    5.36    2.68
   6   1   8    7.26    2.87
   6  -1  -8    3.84    2.15
  -6   1   8    3.40    1.64
   6  -1   8    2.31    2.78
   6  -1   8    2.76    3.52
   6  -1   8   -1.08    3.58
   6   1  -8    5.84    2.21
   6  -1   8    1.09    2.85
  -6   1   8    2.52    1.52
   6   2   8   13.71    3.79
  -6  -2   8   19.69    3.13
   6  -2  -8    8.58    2.72
   6   2   8   12.48    4.49
   6   2   8   20.27    4.58
  -6   2   8   20.28    2.97
   6   2  -8   13.38    3.12
   6   2  -8   15.78    2.91
   6  -2   8   22.52    4.51
   6  -2   8    9.77    4.52
   6  -2   8   12.62    3.56
  -6   2   8   13.60    2.33
  -6  -3   8   -1.09    1.76
   6  -3  -8   -2.26    2.35
   6   3   8    2.92    2.85
   6   3   8    2.73    3.69
   6  -3   8    1.85    3.43
  -6   3   8    0.77    1.42
   6  -3   8    0.99    3.09
   6   3  -8    1.97    2.26
   6  -3   8    2.70    2.95
  -6   3   8    0.65    3.58
   6   3  -8    1.51    1.95
  -6  -4   8   31.76    3.55
   6  -4  -8   22.46    4.43
   6  -4   8   29.24    6.03
  -6   4   8   19.86    3.10
   6   4  -8   29.05    3.77
   6  -4   8   25.09    4.55
   6   4  -8   32.65    4.27
   6  -4   8   26.81    5.38
  -6  -5   8   -1.79    1.68
  -6   5  -8   -0.58    1.68
   6  -5  -8   -1.52    1.76
  -6   5   8    2.21    1.24
   6   5  -8    2.18    1.37
   6  -5   8    0.74    2.06
  -6   6  -8    4.62    1.42
  -6  -6   8    4.88    1.29
   6   6  -8    6.15    1.30
   6  -6   8    2.75    1.76
  -6   6   8    4.93    1.26
   7   0  -8   -0.86    2.07
   7   0   8   -0.11    2.82
   7   0   8   -0.84    2.67
  -7   0   8   -0.74    1.58
   7   0  -8    0.99    3.40
   7   0   8    1.67    3.48
  -7   0   8   -0.20    1.52
   7  -1  -8   35.54    4.76
   7   1   8   41.77    5.92
  -7  -1   8   39.69    3.83
   7   1   8   35.43    6.69
  -7  -1   8   41.73    3.92
   7   1   8   39.31    5.00
   7  -1  -8   45.31    5.65
   7  -1   8   33.95    6.55
   7   1  -8   42.42    4.50
  -7   1   8   37.61    4.54
   7  -1   8   32.06    4.80
  -7   1   8   35.11    3.83
   7  -1   8   34.64    5.29
  -7  -2   8    1.59    1.51
   7   2   8    2.31    2.62
   7   2   8    3.14    3.43
   7  -2  -8   -0.37    2.41
   7  -2  -8   -3.62    2.49
   7  -2   8    1.76    3.44
  -7   2   8    2.93    1.47
   7  -2   8    2.59    2.51
   7  -2   8    1.07    2.70
   7   2  -8   -1.18    1.62
   7  -3  -8   13.99    2.75
  -7  -3   8   18.52    2.67
  -7   3   8   14.80    2.50
   7   3  -8   16.52    3.35
   7  -3   8   15.16    2.97
   7  -3   8   10.95    3.22
   7  -3   8   13.79    3.07
   7   3  -8   19.46    3.45
  -7  -4   8    3.69    1.40
   7  -4  -8    0.89    1.94
   7  -4   8    2.78    3.27
   7  -4   8    5.26    1.88
  -7   4   8    1.38    1.16
   7   4  -8    2.91    1.95
   7   4  -8    2.30    1.55
   7  -4   8   -0.14    2.57
  -7  -5   8    7.12    1.37
  -7   5  -8    6.14    1.97
   7  -5  -8    6.64    1.91
   7  -5   8    7.15    1.64
  -7   5   8    4.60    1.21
   8   0   8    2.71    2.56
   8   0  -8    2.93    1.67
   8   0   8   -1.23    2.27
  -8   0   8    3.24    1.41
   8  -1  -8    1.65    1.74
   8  -1  -8    6.05    2.67
   8   1   8   -3.35    2.71
   8   1   8    1.97    2.41
  -8   1   8    1.01    1.24
   8  -1   8    0.94    2.59
   8   1  -8    0.17    1.43
   8  -1   8    0.71    2.31
   8   2   8    5.53    3.93
  -8  -2   8    6.71    1.99
   8   2   8    6.64    3.21
   8  -2  -8    8.33    2.75
   8   2  -8    9.57    1.68
   8  -2   8    9.49    2.23
  -8   2   8    5.11    1.45
   8  -2   8    2.82    2.01
  -8  -3   8    5.01    1.58
   8  -3  -8    2.84    2.06
   8  -3   8    3.63    2.51
   8   3  -8    4.14    1.77
   8  -3   8    4.18    1.87
   8  -3   8    5.42    2.14
  -8   4  -8    2.46    1.87
   8  -4  -8    4.83    2.39
  -8   4   8    4.92    1.62
   9   0   8    6.44    2.54
  -9   0   8   -0.75    1.17
   9   0  -8   -2.17    1.76
  -9  -1   8    5.83    1.95
   9  -1   8    2.50    1.85
  -9   1   8    4.34    1.31
   9   1  -8    3.55    1.63
   0   0   9    3.16    4.04
   0   0   9   -1.52    1.91
   0   0   9   -2.28    2.38
   0  -1   9   18.72    3.93
   0   1   9   25.06    4.58
   0   1   9   24.32    4.89
   0   1   9   20.52    3.62
   0  -1   9   19.86    3.81
   0  -1   9   19.21    5.50
   0   1   9   27.14    3.74
   0   1   9   25.81    6.03
   0   2   9    1.64    4.43
   0   2  -9    0.44    2.89
   0   2   9    0.46    2.86
   0  -2   9    0.74    2.23
   0  -2   9    2.37    5.38
   0   2   9    0.09    1.56
   0  -2   9   -1.70    2.04
   0   2   9    0.64    2.59
   0  -2   9   -0.44    4.27
   0   2   9   -1.00    1.83
   0  -2   9    5.96    4.79
   0   2  -9   -4.10    9.45
   0   3   9   22.09    3.82
   0   3   9   27.47    3.63
   0  -3   9   -0.13    7.56
   0   3  -9   38.79   11.41
   0   3   9   18.01    6.21
   0   3   9   23.40    3.87
   0   3  -9   14.17    3.06
   0  -3   9   20.21    3.67
   0   3   9   13.90    3.22
   0  -4   9    5.79   12.16
   0   4   9    3.06    2.76
   0   4   9   -2.58    2.98
   0  -4   9   -5.71    4.17
   0   4  -9    0.67    2.16
   0  -4   9   -2.36    2.88
   0   4  -9    5.00   11.78
   0   5  -9    5.74    3.48
   0   5   9   -0.89    2.42
   0   5   9    3.70    2.62
   0   5   9    1.24    1.65
   0   5  -9    1.95    2.10
   0  -5   9    6.47    3.06
   0   5   9   -1.53    1.82
   0   6   9   -1.19    1.67
   0   6   9   -0.59    2.11
   0   6   9    0.97    1.56
   0  -6   9   -2.50    1.97
   0   6   9   -3.77    2.10
   0   6  -9   -0.42    1.80
   0   7   9    3.37    1.77
   0   7   9   -0.63    1.35
   0   7  -9    1.85    1.15
   0  -7   9   -0.83    1.28
  -1   0   9    0.68    2.20
  -1   0   9    2.94    1.75
   1   0   9   -2.36    3.51
   1   0   9   -1.08    3.00
  -1   0   9    4.07    3.78
   1   0   9   -3.15    3.61
   1   0   9   -1.82    2.04
  -1   0   9    3.30    4.50
  -1   0   9   -2.37    3.51
   1   0   9   -1.12    1.84
   1   0   9   -1.13    3.04
  -1  -1   9    3.40    1.72
   1   1   9    2.00    2.98
   1   1   9    4.54    2.48
  -1  -1   9    3.50    2.03
   1   1   9    4.08    1.87
  -1   1  -9   -2.32   10.13
   1   1   9    2.48    2.34
  -1  -1   9   -4.67    4.22
   1   1   9   -3.54    4.07
   1  -1   9    9.18    3.15
  -1   1   9    5.63    3.33
   1  -1   9    1.42    3.89
   1  -1   9    5.45    4.21
  -1   1   9    7.60    1.86
   1  -1   9   -2.56    4.76
  -1   1   9    0.07    1.57
  -1   1   9   -0.94    4.19
   1  -1   9    2.79    2.31
   1  -1   9    0.55    1.75
  -1  -2   9   30.44    4.30
  -1   2  -9   12.46   11.72
   1   2   9   25.96    4.01
  -1  -2   9   22.06    3.98
   1   2   9   27.25    4.70
  -1  -2   9   32.16    6.14
   1  -2  -9   24.97    4.82
   1   2   9   35.17    6.22
  -1  -2   9   27.55    6.09
   1   2   9   43.45    6.72
   1   2   9   24.06    3.77
  -1   2   9   26.83    4.00
   1   2  -9   28.17    5.62
  -1   2   9   20.25    4.21
   1  -2   9   30.82    5.63
   1   2  -9   35.61    9.93
   1  -2   9   23.53    6.58
   1  -2   9   29.80    5.90
  -1   2   9   28.02    3.65
   1  -2   9   24.38    4.48
  -1   2   9   29.67    4.35
   1   3   9    4.07    1.98
   1   3   9    3.87    2.49
   1   3   9    1.69    2.15
   1   3   9    5.28    6.32
   1   3   9    3.94    2.79
  -1   3  -9   -7.57   11.43
  -1  -3   9    0.94    2.44
  -1   3  -9   -0.73    2.53
  -1  -3   9    5.99    2.61
  -1  -3   9   -9.08    7.39
   1  -3   9    3.53    2.70
  -1   3   9    0.33    3.06
   1  -3   9    1.80    3.80
  -1   3   9    5.14    1.90
   1   3  -9    3.74    2.42
  -1   3   9    5.29    3.11
  -1   3   9    5.07    2.28
   1  -3   9   -3.14    7.38
  -1   3   9   -2.02    5.41
   1   3  -9   -5.90    9.76
   1   4   9   -6.98    7.06
   1   4   9   -2.31    2.05
  -1  -4   9    2.54    2.99
  -1  -4   9    1.19    2.27
   1   4   9   -0.54    1.90
   1   4   9   -2.23    2.53
   1   4   9    3.14    2.57
  -1   4  -9   -3.27    2.18
  -1   4  -9   23.42   13.50
  -1   4   9   -2.32    1.98
   1  -4   9   -4.70    2.73
   1   4  -9    0.58    3.34
  -1   4   9    0.57    2.73
  -1   4   9    1.41    1.72
   1   4  -9    6.60   13.53
   1  -4   9    4.48    5.01
   1   4  -9    1.59    2.16
   1   5   9   23.15    4.53
  -1  -5   9   34.02    6.27
   1   5   9   26.80    4.06
   1   5   9   19.11    3.53
  -1   5  -9   20.80    3.71
  -1  -5   9   20.59    3.93
  -1   5   9   18.18    3.22
   1  -5   9   23.27    3.86
  -1   5   9   23.95    4.04
   1   5  -9   29.99    5.03
   1   5  -9   22.80    3.90
  -1   5   9   22.85    3.97
  -1   6  -9   -0.20    1.53
   1   6   9   -1.03    1.64
   1  -6  -9    3.91    4.53
   1   6   9   -1.12    2.41
   1   6   9    0.52    2.08
   1   6   9    0.71    1.71
  -1  -6   9   -0.11    2.38
  -1   6   9    1.85    2.20
  -1   6   9    1.86    1.63
   1   6  -9   -1.30    1.57
   1  -6   9    2.99    2.11
  -1  -7   9    3.66    1.90
   1   7   9    0.28    1.44
   1   7   9   -0.06    1.49
  -1   7  -9    2.03    1.40
   1  -7   9    0.39    1.40
   1   7  -9    0.45    1.30
  -1   7   9    0.88    1.49
  -1   7   9    4.36    2.24
  -1   7   9   -2.13    1.67
  -2   0   9   27.08    5.45
   2   0   9   27.18    3.87
   2   0   9   24.78    3.91
   2   0   9   25.55    5.65
  -2   0   9   23.05    3.41
  -2   0   9   25.69    4.69
   2   0  -9   22.95    4.34
   2   0   9   19.62    4.90
   2   0   9   25.48    5.32
  -2   0   9   25.84    3.99
   2   1   9   21.24    3.64
  -2  -1   9   19.41    3.07
   2  -1  -9   16.25    3.96
   2   1   9   19.02    4.04
   2   1   9   24.18    4.70
   2   1   9   14.23    2.90
  -2  -1   9    8.20    4.80
   2   1   9   22.52    4.42
  -2   1  -9   44.79   13.32
   2   1   9   13.34    4.84
  -2  -1   9   19.11    3.67
   2  -1   9   13.42    5.35
   2  -1   9   19.03    3.71
   2  -1   9   21.07    4.94
  -2   1   9   24.02    4.74
   2  -1   9   23.12    3.77
  -2   1   9   19.12    3.23
   2   1  -9   16.01    3.91
  -2   1   9   13.57    2.59
   2  -1   9   17.11    4.48
  -2   1   9   23.18    5.34
   2   2   9   36.25    4.73
  -2  -2   9   43.00    4.76
   2   2   9   44.87    5.23
   2   2   9   44.62    4.56
   2   2   9   44.79    7.04
   2   2   9   55.65    7.86
  -2   2  -9   39.95   13.09
  -2  -2   9   42.18    4.72
   2  -2  -9   37.78    7.42
   2   2   9   47.88    6.36
   2  -2   9   43.64    8.76
   2  -2   9   44.09    4.93
  -2   2   9   39.74    4.13
   2  -2   9   27.83    7.67
  -2   2   9   38.80    4.97
  -2   2   9   35.50   12.88
  -2   2   9   32.67    5.27
  -2   2   9   30.37    7.08
   2   2  -9   39.99    6.60
   2   2  -9   34.59    5.97
   2  -2   9   43.56    8.13
   2  -2   9   33.80    5.16
   2   2  -9   38.17   10.65
   2   3   9    2.97    2.04
  -2  -3   9    8.50    9.00
   2   3   9    3.36    2.60
   2   3   9    4.54    2.47
  -2   3  -9   -1.19    2.53
   2   3   9    6.06    2.46
  -2   3  -9   23.54   14.22
  -2  -3   9    2.91    2.32
  -2  -3   9    4.89    2.40
   2   3   9   10.41    6.65
   2   3  -9    0.91    9.81
  -2   3   9   -8.70    6.82
  -2   3   9    4.29    1.63
  -2   3   9    3.53    2.36
  -2   3   9    7.44    3.44
   2  -3   9    8.42    8.32
  -2   3   9    0.34   11.54
   2  -3   9    4.20    4.35
  -2   3   9    2.60    2.41
   2  -3   9    4.70    2.56
   2  -3   9    7.27    3.70
   2   3  -9   -0.20    3.31
   2   3  -9    1.54    2.14
   2  -3   9   -8.72    5.44
  -2   4  -9   26.60   14.47
   2   4   9   15.50    3.04
   2   4   9   18.64    3.64
  -2   4  -9    9.41    2.76
   2   4   9   13.24    2.90
  -2  -4   9   21.26    3.85
  -2  -4   9    2.73   12.34
   2   4   9   12.21    2.63
   2  -4   9   15.31   11.78
  -2   4   9   16.11    2.52
   2   4  -9   10.59    2.38
   2   4  -9    5.27   11.47
   2   4  -9   14.16    3.57
   2  -4   9    8.85    4.31
  -2   4   9   12.30    2.87
  -2   4   9    6.36   14.38
  -2   4   9   13.91    3.23
  -2   5  -9    0.42    2.11
   2   5   9   -1.10    1.65
  -2  -5   9    0.66    2.18
   2   5   9    0.19    2.52
   2  -5  -9    6.16    3.36
  -2  -5   9    2.37    3.12
   2   5   9    0.54    2.18
  -2   5   9    2.18    2.05
   2  -5   9   -0.20    2.14
  -2   5   9   -0.89    2.18
   2   5  -9    0.25    2.00
  -2   5   9    0.54    1.69
   2   5  -9    0.34    3.06
   2  -5   9   -6.09    4.47
  -2   5   9   -2.59    2.45
  -2  -6   9    1.68    1.80
   2  -6  -9    2.46    3.62
   2   6   9    4.79    1.61
  -2   6  -9    5.62    2.04
  -2  -6   9    5.49    2.68
   2   6   9    9.67    2.05
   2   6   9    4.11    2.35
  -2   6   9    7.33    2.49
   2   6  -9    1.99    1.56
  -2   6   9    8.40    1.89
   2  -6   9    7.16    1.81
  -2   6   9    2.14    1.67
   2   7   9    0.74    1.34
  -2   7  -9    1.12    1.26
   2   7   9    0.85    1.11
  -2  -7   9    0.15    1.69
  -2   7   9    3.07    1.71
   2   7  -9    0.75    0.96
  -2   7   9    3.97    1.62
   2  -7   9    0.14    1.20
   3   0   9   -0.34    1.74
   3   0  -9    2.55    2.87
   3   0   9    1.60    8.69
   3   0   9    5.25    3.79
  -3   0   9   -1.00    2.54
  -3   0   9    8.49    6.82
   3   0   9   -2.55    2.32
  -3   0   9    0.06    1.44
   3   0   9    4.31    3.85
   3   1   9    2.39    2.85
  -3  -1   9    6.82    2.47
   3   1   9    6.37    2.58
   3   1   9    9.24    4.15
  -3  -1   9   12.38    2.27
  -3   1  -9    3.71   32.05
   3   1   9   15.13    5.50
   3  -1  -9    1.36    2.96
  -3  -1   9    1.04    9.31
   3   1   9    7.06    2.30
   3  -1   9    5.52    2.07
   3  -1   9    5.43    4.78
  -3   1   9    8.21    1.95
  -3   1   9    6.14    2.85
   3  -1   9    8.60    4.19
  -3   1   9   18.06   11.60
   3  -1   9    7.23    6.03
  -3   1   9    6.72    2.71
   3  -1   9    6.11    2.76
   3   1  -9    6.86    3.03
  -3  -2   9   -9.13    8.44
   3  -2  -9    1.37    3.55
  -3  -2   9    4.71    2.61
   3   2   9   -1.09    2.77
   3   2   9   12.32    6.69
   3   2   9    4.84    2.32
  -3   2  -9   -3.47   15.11
   3   2   9   -1.06    1.83
   3   2   9    2.86    2.49
  -3  -2   9    2.50    1.94
   3   2   9    5.61    3.71
  -3   2   9   -3.43    4.85
   3  -2   9    0.47    7.38
   3  -2   9    0.56    4.44
   3   2  -9    0.70    2.73
  -3   2   9   -0.54    2.95
  -3   2   9   -1.47    2.22
   3  -2   9    2.14    2.16
   3  -2   9    4.77    2.98
  -3   2   9   -1.24    1.53
  -3  -3   9    9.42    2.91
  -3   3  -9    3.89   17.17
   3   3   9   12.03    2.53
   3   3   9   11.69    2.99
   3   3   9    9.86    2.78
   3   3   9   11.88    2.97
  -3  -3   9    8.69    2.65
  -3   3   9   15.31    2.47
   3  -3   9   10.16    4.04
  -3   3   9    7.33    3.30
   3  -3   9   13.53    2.86
   3   3  -9   14.79    3.51
  -3   3   9    6.45    2.39
   3  -3   9    9.32    4.57
  -3   3   9   13.80    4.09
   3  -3   9   10.39    4.87
   3   3  -9   27.09   13.50
   3   3  -9   11.27    2.58
  -3   3   9   29.19   11.65
   3  -3   9   31.08    9.47
  -3  -4   9    3.20    2.58
   3   4   9   -2.45    2.66
   3   4   9    0.56    2.40
  -3  -4   9    0.84    3.47
   3   4   9   -1.98    1.80
   3  -4  -9    0.54    2.90
  -3   4  -9   -0.01    2.32
   3   4  -9    0.11    1.88
  -3   4   9    1.21    1.97
   3   4  -9    3.46    2.59
   3  -4   9   -0.69    3.75
  -3   4   9    0.01    1.48
   3   5   9    5.56    2.28
   3   5   9    2.11    2.15
  -3  -5   9    5.45    2.47
  -3   5  -9    0.99    1.98
   3   5   9    6.00    2.58
   3  -5  -9   -1.23    2.62
  -3  -5   9   -0.19    2.88
   3  -5   9    0.82    3.99
  -3   5   9    2.39    1.83
   3   5  -9    4.63    1.81
   3   5  -9   -2.30    2.79
  -3   5   9    1.68    1.77
   3  -5   9    2.21    1.84
   3   6   9    2.42    1.83
  -3   6  -9    0.15    1.63
   3   6   9    2.10    2.27
   3   6   9    4.20    1.74
  -3  -6   9    1.79    1.75
   3  -6  -9    0.48    3.70
  -3  -6   9   -1.65    3.49
   3  -6   9    0.99    1.47
   3  -6   9    4.89    4.21
  -3   6   9    3.26    1.50
   3   6  -9    3.36    1.63
  -3   6   9    3.76    1.61
   3  -7  -9    2.11    1.61
  -3   7  -9    2.01    1.17
   3   7   9    1.84    2.01
   3   7   9    5.39    1.61
  -3   7   9    3.53    1.29
   3   7  -9    1.13    1.17
   4   0   9   25.40    4.86
   4   0  -9   28.24    5.27
  -4   0   9   29.35    3.65
   4   0   9   34.41    4.12
   4   0   9   37.58    5.19
   4   0   9   41.27    6.52
   4   0   9   16.35    7.60
  -4  -1   9    1.78    1.79
   4   1   9   -1.96    2.70
   4   1   9    1.39    1.98
   4   1   9    1.73    2.49
   4   1   9   11.88    4.05
  -4   1  -9    0.14   32.83
   4   1   9    2.82    8.02
   4  -1  -9   -3.79    2.31
   4  -1   9   -0.76    1.97
   4   1  -9   -0.52    2.45
   4  -1   9   -3.16    7.61
   4   1  -9   -0.02    4.71
  -4   1   9    2.23    1.95
  -4   1   9   18.31   10.22
  -4   1   9    0.14    1.51
   4  -1   9   -3.73    4.05
   4  -1   9    2.40    2.76
   4  -1   9    2.00    4.46
   4  -2  -9   31.59    5.81
   4   2   9   41.04    5.88
   4   2   9   41.28    4.76
   4   2   9   32.80    5.20
   4   2   9   27.86    4.90
  -4  -2   9   39.71    4.49
   4   2   9   35.17   10.05
  -4   2  -9   24.86   22.64
   4   2  -9   41.71    5.73
  -4   2   9   53.97   11.12
   4  -2   9   31.46    5.53
   4  -2   9   34.05    5.84
   4  -2   9   42.26    4.55
  -4   2   9   35.59    3.89
   4  -2   9   42.94    9.37
  -4   2   9   40.81    4.48
   4   3   9   18.90    3.33
   4  -3  -9   31.21    6.19
   4   3   9   18.98    3.02
  -4  -3   9   22.33    3.90
   4   3   9   23.88    4.32
   4  -3   9   16.75    4.82
  -4   3   9   20.06    3.08
   4  -3   9   30.84    5.11
   4   3  -9   26.37    5.13
   4  -3   9   20.28    3.62
   4   3  -9   20.75    3.77
   4  -3   9   15.28    4.19
   4  -4  -9   52.69    6.80
   4   4   9   46.94    5.66
   4   4   9   58.08    5.70
   4   4   9   56.59    6.20
  -4   4  -9   42.18    5.58
  -4  -4   9   60.47    5.84
   4   4   9   57.17    5.46
   4  -4   9   53.07    7.62
   4  -4   9   51.64    9.72
  -4   4   9   49.67    4.83
   4   4  -9   58.89    6.22
   4   4  -9   67.53    5.56
   4  -4   9   47.10    4.91
  -4   4   9   60.85    5.02
   4  -4   9   72.33    7.57
  -4  -5   9    7.14    2.12
   4   5   9    1.89    2.27
  -4   5  -9    3.33    1.98
   4  -5  -9    6.80    2.45
   4   5   9    6.96    2.72
  -4   5   9    6.04    1.95
  -4   5   9    3.00    1.61
   4  -5   9    3.42    3.29
   4   5  -9    5.42    1.70
   4   5  -9    4.84    2.48
   4  -5   9    6.14    1.64
  -4  -6   9   24.17    3.74
   4  -6  -9   26.67    3.83
   4   6   9   22.06    3.57
   4  -6  -9   32.57    6.05
   4   6   9   24.69    3.36
  -4   6  -9   24.08    3.12
   4   6  -9   25.47    2.91
   4  -6   9   22.00    3.06
   4  -6   9   24.31    3.37
  -4   6   9   25.27    3.17
   5   0   9    4.27    4.81
  -5   0   9   16.51   16.91
  -5   0   9    0.27    1.47
   5   0   9    2.45    2.45
   5   0  -9   -0.36    3.48
   5   0   9   -3.31    2.45
   5   0  -9    3.94    2.41
  -5   0   9    1.55    1.85
  -5  -1   9   16.52    2.71
   5   1   9   18.19    2.78
   5  -1  -9   19.32    3.90
   5   1   9   15.68    3.04
  -5  -1   9   16.35    2.88
   5   1   9   12.10    3.28
   5  -1  -9   11.19    2.75
   5   1   9   15.19    4.42
  -5   1   9   15.26    2.51
   5   1  -9   15.20    2.90
  -5   1   9   18.28    2.81
   5  -1   9   14.69    2.60
   5  -1   9   13.27    4.71
   5  -1   9   17.11    3.18
   5  -1   9    7.51    4.02
  -5  -2   9    7.02    2.11
  -5  -2   9   10.18    2.96
   5  -2  -9   10.53    3.53
   5   2   9   14.03    3.39
   5   2   9   14.72    3.00
   5  -2  -9   14.51    4.25
   5   2   9    4.54    2.53
  -5   2   9    9.74    1.95
   5  -2   9    1.20    4.03
   5  -2   9    7.80    2.16
   5  -2   9   11.99    4.02
   5  -2   9    9.70    3.51
   5   2  -9   10.96    2.66
  -5   2   9    8.48    1.96
   5   3   9   16.45    2.81
   5   3   9   25.14    4.21
   5   3   9   17.39    3.12
  -5  -3   9   22.07    3.61
   5  -3  -9   10.93    3.21
  -5   3   9   21.00    3.01
   5  -3   9   11.93    4.35
   5   3  -9   26.48    4.63
   5  -3   9   14.69    2.37
  -5   3   9   20.85    3.05
   5  -3   9   17.52    3.81
   5  -3   9   14.50    3.81
   5   3  -9   19.58    4.00
   5   4   9    3.13    2.77
  -5  -4   9    1.72    1.83
   5  -4  -9    5.18    2.44
  -5   4  -9    0.50    1.93
   5   4   9   -1.43    2.25
   5  -4   9    2.98    3.72
   5  -4   9    2.87    3.23
   5   4  -9    0.45    2.01
   5  -4   9    0.76    3.15
  -5   4   9    2.49    1.55
   5   4  -9    1.83    1.81
  -5   5  -9   22.58    3.22
   5  -5  -9   31.46    4.22
   5   5   9   26.59    4.15
   5   5  -9   31.02    3.23
  -5   5   9   21.01    2.94
   5   5  -9   30.97    4.23
  -5   6  -9   -0.61    1.05
  -5  -6   9   -2.13    1.12
   5   6  -9    0.91    1.57
  -5   6   9   -0.35    1.17
   6   0  -9   90.19    7.96
   6   0   9  104.25    8.50
  -6   0   9  101.43    7.29
   6   0   9  100.04    9.65
   6   0   9   90.58   10.20
  -6   0   9  109.76    7.60
   6   0  -9   98.19    9.03
   6   1   9    0.61    2.88
   6  -1  -9    5.20    2.84
  -6  -1   9    2.11    1.49
   6   1   9    0.52    3.92
   6   1   9    1.83    2.39
  -6  -1   9    1.61    1.94
   6  -1  -9    4.74    2.07
   6  -1   9    3.69    3.89
   6  -1   9    2.46    3.03
   6  -1   9    1.57    4.31
   6   1  -9    2.51    2.10
  -6   1   9    1.87    1.71
  -6   1   9    3.05    1.58
   6   2   9   30.71    4.86
   6  -2  -9   22.47    3.75
  -6  -2   9   25.92    4.10
   6   2   9   22.64    3.92
   6   2   9   21.80    3.45
  -6  -2   9   31.29    3.38
   6  -2  -9   21.91    3.63
   6   2  -9   28.40    4.31
  -6   2   9   17.20    3.19
   6  -2   9   22.25    4.36
  -6   2   9   24.78    3.21
   6  -2   9   20.31    4.95
   6  -2   9   32.35    4.67
   6   3   9    7.35    2.75
   6   3   9    1.12    2.60
   6  -3  -9    3.91    2.35
  -6  -3   9    7.41    2.06
   6  -3   9    5.74    2.90
   6   3  -9    6.04    2.17
   6   3  -9    4.73    2.35
  -6   3   9    3.40    1.51
  -6   3   9    5.80    2.30
   6  -3   9    1.81    2.61
   6  -3   9    1.71    3.10
   6  -4  -9   47.79    5.01
  -6  -4   9   55.92    4.47
   6   4  -9   47.83    4.95
  -6   4   9   46.31    4.15
   6  -4   9   54.85    6.80
   6  -4   9   45.44    6.17
   6   4  -9   52.13    4.67
   6  -4   9   54.02    5.15
   6  -5  -9   -1.90    1.69
  -6   5  -9   -0.05    1.34
  -6  -5   9    0.49    1.18
   6  -5   9   -0.93    1.66
  -6   5   9    1.89    1.30
  -7   0   9   -1.11    1.47
   7   0   9    0.06    2.25
   7   0   9    0.26    3.01
   7   0   9    0.57    2.38
  -7   0   9   -0.83    1.50
  -7  -1   9   53.43    4.76
   7  -1  -9   53.51    4.94
   7   1   9   47.47    5.81
  -7  -1   9   59.80    4.38
   7   1   9   44.43    5.20
   7   1   9   49.15    6.87
   7  -1  -9   53.84    6.01
   7  -1   9   54.18    6.72
   7  -1   9   52.54    5.18
   7   1  -9   53.36    5.20
  -7   1   9   55.98    4.46
   7  -1   9   38.03    6.36
  -7  -2   9    0.79    1.26
   7  -2  -9    1.35    2.15
   7   2   9    0.77    2.32
  -7  -2   9    2.53    2.25
   7  -2   9    4.54    2.47
   7  -2   9    2.30    2.22
   7  -2   9    1.91    2.41
  -7   2   9    3.26    1.45
   7   2  -9    2.08    1.76
  -7  -3   9   26.64    3.69
   7  -3  -9   38.39    3.96
   7   3  -9   35.82    3.69
   7  -3   9   35.36    5.04
   7  -3   9   33.80    3.88
  -7   3   9   34.16    3.19
  -7  -4   9   -0.99    0.80
  -7   4  -9    0.94    1.66
   7  -4  -9    0.31    1.73
  -7   4   9    1.65    1.14
   7  -4   9    0.13    1.68
   8   0   9   35.75    4.28
   8   0  -9   31.91    3.42
   8   0   9   27.96    4.13
  -8   0   9   29.36    3.21
   8   1   9    4.37    2.61
   8   1   9    4.51    1.97
   8  -1  -9    3.25    2.21
  -8  -1   9    5.43    1.65
   8  -1   9    0.92    2.15
   8   1  -9    4.66    1.52
   8  -1   9    0.07    1.96
  -8   1   9    6.17    1.49
   8   2  -9   28.65    2.94
   8  -2   9   25.86    3.77
   8  -2   9   24.53    4.20
  -8   2   9   24.09    2.65
   0   0  10    7.96    3.35
   0   0  10   10.05    2.06
   0   0  10   10.40    3.53
   0   0  10   12.73    2.36
   0   0  10   10.47    5.80
   0   1  10    1.74    1.90
   0  -1  10    2.83    3.67
   0   1  10    1.33    2.69
   0   1  10    1.59    1.65
   0   1  10    1.00    3.20
   0  -1  10   -2.03    3.58
   0   1  10    2.20    5.60
   0  -1  10    1.92    1.77
   0  -1  10   -1.26    1.77
   0   2  10   99.78    8.92
   0  -2  10  105.00    8.34
   0  -2  10  111.09   10.69
   0   2  10  120.17    8.26
   0   2  10  116.85    8.26
   0  -2  10  112.00    8.17
   0  -2  10   88.78   11.34
   0   2  10  105.48    9.94
   0   2 -10   90.53    9.49
   0   2  10   99.26   14.36
   0  -2  10   94.97   16.16
   0   3  10   -0.08    1.93
   0   3  10   -0.49    2.62
   0   3 -10   -7.50   17.06
   0   3  10    6.32    7.30
   0  -3  10   -2.38    3.37
   0   3  10   -2.11    2.42
   0  -3  10    0.90    2.48
   0   3 -10    3.65    2.71
   0  -3  10    2.80   10.37
   0   3  10    0.37    1.98
   0   4  10   85.19    7.63
   0   4  10   74.37    6.93
   0   4 -10   75.98    7.64
   0   4 -10   90.90    8.74
   0   4  10   85.48    6.67
   0  -4  10   87.40    7.77
   0   5 -10    2.07    2.16
   0   5  10   -1.25    2.27
   0   5 -10    2.14    2.93
   0  -5  10   -0.91    2.45
   0  -6  10   71.24    5.56
   0   6  10   60.79    5.21
   0   6  10   71.29    5.68
   0   6 -10   70.10    5.64
   0   6  10   58.89    5.37
   0  -7  10   -0.75    1.12
   0   7  10    0.96    0.83
   0   7 -10    1.03    1.15
   0   7  10    0.34    2.29
  -1   0  10   -0.50    1.72
   1   0  10    0.01    1.97
  -1   0  10    2.22    3.98
  -1   0  10   -1.69    3.29
   1   0  10   -4.77    3.29
   1   0  10   -3.48    2.40
   1   0  10   -0.59    5.56
  -1   0  10    1.40    1.93
   1   0  10   -1.45    1.73
  -1   0  10   -9.20    5.42
   1   1  10   40.72    4.12
  -1  -1  10   33.57    4.07
  -1  -1  10   30.13    5.14
   1   1  10   34.21    5.28
   1   1  10   43.11    7.04
   1   1  10   33.86    4.27
   1  -1 -10   32.26    5.74
  -1  -1  10   30.07    6.64
   1   1  10   31.14    6.50
  -1  -1  10   30.03    4.02
   1  -1  10   33.42    4.68
  -1   1  10   31.78    4.03
  -1   1  10   30.69    3.88
  -1   1  10   39.30    6.93
   1  -1  10   28.98    5.50
   1  -1  10   26.18    7.39
  -1   1  10   38.85    6.99
  -1   1  10   32.96    5.89
   1  -1  10   22.56    4.98
   1  -1  10   28.35    4.37
   1   2  10    6.46    6.88
  -1  -2  10    3.42    4.98
  -1  -2  10   19.94    7.80
   1   2  10    6.49    3.01
  -1  -2  10    3.04    2.27
   1   2  10    4.99    2.58
   1  -2 -10    0.38    3.74
   1   2  10    4.58    1.71
   1   2  10    5.25    2.05
  -1  -2  10    2.86    2.14
  -1   2 -10    4.86    3.32
  -1   2  10    2.56    2.92
  -1   2  10    5.04    2.84
  -1   2  10    4.21    2.10
  -1   2  10    1.86    6.15
  -1   2  10    2.96    2.05
   1  -2  10   -1.01    7.49
   1  -2  10    4.38    4.39
   1  -2  10    3.43    1.92
   1  -2  10    7.14    3.96
   1   3  10  117.51   18.48
   1   3  10  139.34   10.80
  -1  -3  10  131.04   10.10
  -1   3 -10  177.80   35.08
  -1  -3  10  152.92   22.21
   1   3  10  135.96    9.84
   1   3  10  140.00    9.87
  -1  -3  10  139.08    9.92
  -1   3 -10  120.72   10.50
   1   3  10  142.71   10.32
   1  -3  10  122.53   16.81
  -1   3  10  129.31    9.89
   1   3 -10  125.33   10.29
   1   3 -10  120.00   11.45
   1  -3  10  130.94   10.27
   1  -3  10  129.05   11.72
  -1   3  10  136.63    9.63
  -1   3  10  125.41   18.75
  -1   3  10  130.14   10.54
  -1  -4  10    0.13    2.15
  -1  -4  10    3.63    2.84
   1   4  10    0.27    1.79
   1   4  10    1.34    2.19
   1   4  10   -3.50    2.34
  -1   4  10   -2.55    2.82
   1   4 -10   -0.39    3.67
  -1   4  10    3.10    3.01
   1  -4  10   10.82    6.20
  -1   4  10   -0.42    1.55
   1  -4  10   -0.21    2.29
  -1   5 -10   70.22    6.55
  -1  -5  10   79.85    6.00
   1   5  10   76.27    6.10
  -1  -5  10   75.22    6.84
   1   5  10   67.54    6.49
   1   5  10   64.12    5.89
  -1   5 -10   77.76    7.27
  -1   5  10   64.31    6.66
  -1   5  10   61.05    6.11
  -1   5  10   67.90    6.40
   1  -5  10   81.36    6.82
   1   5 -10   85.02    7.23
  -1   5  10   71.50    5.81
   1   5 -10   72.86    6.28
   1   6  10   -2.37    1.37
   1   6  10   -0.59    1.48
  -1   6 -10   -2.17    1.65
   1   6  10   -3.61    1.87
  -1  -6  10    1.82    1.76
  -1   6  10    0.72    1.37
  -1   6  10   -1.92    1.72
  -1   6  10    1.89    2.14
   1   6 -10   -1.38    1.37
   1  -6  10   -0.08    1.50
   1   7  10   25.00    2.70
  -1   7 -10   25.91    2.63
   1   7  10   26.95    2.88
  -1   7  10   28.38    3.26
   1  -7  10   30.77    2.60
   1   7 -10   31.64    2.71
   2   0 -10   34.13    6.04
   2   0  10   39.08    7.16
   2   0  10   43.55    4.45
  -2   0  10   33.78    4.16
   2   0  10   31.78    5.43
  -2   0  10   36.21    4.46
  -2   0  10   35.22    9.23
   2   0  10   37.91    5.33
  -2  -1  10    0.01    1.83
   2   1  10    1.16    2.27
   2  -1 -10    1.02    2.73
   2   1  10   -0.42    2.76
  -2  -1  10    0.75    1.82
   2   1  10    8.81    6.84
   2   1  10    1.87    1.74
   2   1  10    0.18    2.53
  -2  -1  10   -3.44    7.88
  -2   1  10   -0.90    1.99
   2  -1  10   -7.61    7.46
   2  -1  10    1.79    1.83
  -2   1  10   -4.19    4.67
  -2   1  10    0.76    1.46
  -2   1  10    9.77    7.75
   2   1 -10   -1.25    2.72
   2  -1  10   -0.51    3.07
   2  -1  10   -0.88    3.85
   2  -1  10    6.62    4.22
   2  -2 -10   57.13    7.88
   2   2  10   68.82    5.90
   2   2  10   64.08    7.66
   2   2  10   64.61    6.49
  -2  -2  10   65.65    5.96
  -2   2 -10   52.82    7.30
  -2  -2  10   63.27   11.72
   2   2  10   86.83   13.97
   2   2  10   65.78    5.79
  -2  -2  10   61.38    6.05
  -2   2  10   81.39   14.70
   2   2 -10   56.86    7.43
   2  -2  10   70.05    6.14
  -2   2  10   59.33    5.46
   2  -2  10   70.78    8.75
   2  -2  10   65.86   10.72
   2  -2  10   57.56    7.55
  -2   2  10   64.11    7.76
  -2   2  10   63.50    6.21
   2  -2  10   72.48    9.33
  -2  -3  10   12.06    2.93
   2   3  10   11.26    2.78
   2   3  10   20.22    3.87
  -2   3 -10   12.30    3.04
  -2   3 -10   19.80   26.90
   2   3  10   11.16    2.33
  -2  -3  10    4.75   14.46
   2   3  10    9.51    2.56
   2   3  10    0.94    8.35
  -2  -3  10   13.40    2.89
  -2   3  10    9.86    2.29
   2   3 -10   12.02    3.35
  -2   3  10   13.28    3.43
   2   3 -10   12.91    2.65
  -2   3  10    7.78    3.68
   2  -3  10    9.53    2.82
   2  -3  10   -4.03   12.17
  -2   3  10    6.50    2.59
   2  -3  10   12.02    4.01
  -2   3  10    7.99   12.57
  -2  -4  10  103.84    7.85
   2   4  10   96.57    7.76
   2   4  10   98.34    8.30
  -2  -4  10   99.69    8.36
   2   4  10  104.54    8.69
   2   4  10   98.00    7.85
  -2   4  10  101.22    7.42
  -2   4  10   82.08    7.76
   2   4 -10  110.37    8.92
   2  -4  10   92.56    7.92
   2  -4  10   88.89    9.95
  -2   4  10   96.21    8.48
  -2   4  10   88.09    7.99
   2   4 -10   92.85    7.72
  -2  -5  10    3.22    1.68
   2   5  10    0.02    1.67
  -2   5 -10   -0.05    1.91
  -2  -5  10    5.33    2.72
   2   5  10    1.00    2.14
   2  -5 -10    1.77    3.04
  -2   5 -10   -3.58    2.76
   2   5  10    3.77    1.99
   2   5 -10    1.02    2.57
  -2   5  10   -2.29    1.93
  -2   5  10    1.64    1.54
   2  -5  10    7.83    5.39
   2  -5  10   -0.91    1.84
  -2   5  10    1.73    2.46
   2   5 -10    1.21    1.69
   2   6  10   21.78    2.86
   2  -6 -10   39.72    8.07
   2   6  10   26.25    3.51
   2   6  10   19.42    2.95
  -2  -6  10   19.02    3.86
  -2   6 -10   21.15    2.80
  -2   6  10   22.23    5.26
   2   6 -10   23.68    2.85
  -2   6  10   18.28    3.23
   2  -6  10   22.91    2.78
  -2   6  10   22.12    2.76
   3   0 -10    4.85    2.83
   3   0  10   12.42    6.96
  -3   0  10    2.74    2.54
   3   0  10   -0.35    4.01
   3   0  10    6.34    3.68
   3   0  10    1.49    2.57
   3   0  10   -1.68    1.87
  -3   0  10   -0.81    1.61
   3   1  10   36.59    4.46
   3  -1 -10   25.98    5.56
   3   1  10   47.44    6.57
   3   1  10   41.43    7.19
   3   1  10   41.16    5.33
  -3  -1  10   37.46    4.33
  -3  -1  10   41.20    5.19
   3  -1  10   48.95   10.62
   3  -1  10   27.18    5.47
   3   1 -10   39.14    5.97
   3  -1  10   39.93    5.92
  -3   1  10   35.79    3.82
  -3   1  10   43.15    5.80
   3  -1  10   37.35    4.47
   3  -1  10   35.47    6.13
  -3  -2  10    0.73    2.06
  -3   2 -10   -0.02    2.95
  -3  -2  10    0.74    2.43
   3   2  10   -1.27    8.66
   3   2  10    2.66    2.60
   3  -2 -10    2.59    3.00
   3   2  10    5.59    2.03
   3   2  10    6.08    2.72
  -3   2  10    9.55    3.14
   3  -2  10    4.54    3.56
  -3   2  10    7.28    3.16
   3  -2  10   -0.73    3.62
   3   2 -10   -0.03    2.84
  -3   2  10    4.19    7.58
  -3   2  10    2.74    1.72
   3  -2  10   -2.85    9.53
   3  -2  10   -3.45    4.24
   3  -2  10    4.39    2.20
   3   3  10   82.78    6.91
   3   3  10   82.06    6.92
   3   3  10   78.30    7.86
   3   3  10   80.52    7.25
  -3  -3  10   89.31    7.44
  -3  -3  10   91.44    7.27
  -3   3 -10   68.94    9.23
   3  -3  10   87.01    6.89
   3  -3  10   83.41    9.06
   3  -3  10   62.03   10.74
  -3   3  10   88.75    7.04
   3   3 -10   92.06    7.97
  -3   3  10   73.38    9.10
   3   3 -10   86.23    7.11
  -3   3  10   81.03    6.41
   3   4  10   -0.78    2.30
   3   4  10   -2.91    2.18
   3   4  10   -1.25    2.25
   3  -4 -10   -0.60    2.57
  -3  -4  10   -0.52    2.28
  -3   4 -10   -1.93    2.18
   3   4  10    4.63    1.94
  -3  -4  10    3.54    2.79
  -3   4  10   -3.80    2.01
  -3   4  10   -1.80    1.50
   3   4 -10   -0.02    2.46
   3  -4  10    0.87    4.16
   3   4 -10    0.30    1.83
   3  -4  10    1.03    1.84
   3   5  10   54.81    4.75
  -3   5 -10   41.71    4.91
  -3  -5  10   52.17    4.47
   3  -5 -10   43.88    5.75
  -3  -5  10   45.90    6.30
   3   5  10   49.11    4.94
   3   5 -10   56.30    5.23
  -3   5  10   34.26    4.94
  -3   5  10   41.93    4.14
   3  -5  10   51.81    6.39
   3   5 -10   48.87    4.44
   3  -5  10   46.40    4.21
   3   6  10    5.13    1.58
   3   6  10    2.36    1.83
  -3  -6  10    4.25    1.50
  -3   6 -10    2.93    1.30
   3  -6 -10    0.22    3.60
   3   6 -10    4.44    1.22
  -3   6  10    4.80    1.73
  -3   6  10    0.78    1.51
   3  -6  10    5.67    1.35
   4   0  10   32.46    4.94
   4   0  10   23.56    5.21
  -4   0  10   26.77    3.43
   4   0 -10   27.90    4.41
   4   0  10   29.94    4.12
   4   0 -10   25.15    4.75
  -4  -1  10    6.17    1.82
   4   1  10    4.95    1.95
   4   1  10    6.52    3.72
   4  -1 -10    7.59    2.57
   4   1  10    5.34    2.76
   4  -1 -10    7.01    3.50
   4   1  10    1.96    2.84
   4  -1  10    1.10    3.70
   4   1 -10    7.39    2.85
   4  -1  10    4.81    2.82
   4  -1  10    5.96    4.45
   4  -1  10    5.72    1.97
  -4   1  10    5.84    1.76
   4   2  10   33.70    5.22
   4  -2 -10   29.15    5.53
  -4  -2  10   38.14    4.32
   4   2  10   44.16    6.73
   4   2  10   38.73    6.41
   4  -2 -10   34.41    6.10
   4   2  10   41.41    5.26
   4  -2  10   42.87    5.33
   4  -2  10   40.55    6.25
  -4   2  10   36.57    4.58
   4  -2  10   46.72    7.31
   4   2 -10   44.36    5.12
  -4   2  10   32.44    3.70
   4  -2  10   49.21    9.65
  -4   3 -10    6.14    3.07
   4  -3 -10    1.79    2.94
   4   3  10    7.85    2.53
  -4  -3  10    1.73    2.13
   4   3  10    3.25    2.62
   4   3  10    7.40    2.14
   4  -3  10    6.90    1.93
  -4   3  10    4.55    1.77
   4   3 -10    6.15    2.88
   4  -3  10   11.43    4.06
   4  -3  10    5.57    3.78
   4   3 -10    8.46    2.60
   4  -3  10    9.68    3.88
  -4   3  10    1.84    2.03
   4   4  10   52.70    5.00
   4   4  10   50.69    5.80
  -4   4 -10   42.56    5.37
   4   4  10   49.94    5.67
   4  -4 -10   54.20    5.96
  -4   4  10   49.55    4.67
   4  -4  10   53.31    4.55
  -4   4  10   53.47    4.57
   4   4 -10   58.51    5.09
   4  -4  10   40.03    6.58
   4   4 -10   59.10    5.55
  -4   5 -10    1.59    1.75
   4  -5 -10    2.33    2.10
   4   5  10    7.89    2.80
  -4  -5  10    2.75    1.78
   4   5  10    4.88    2.12
   4   5 -10    1.25    1.94
   4   5 -10    1.22    2.29
  -4   5  10    0.95    1.74
   4  -5  10    1.48    1.42
   4  -5  10    5.53    3.19
  -4   6 -10   14.86    1.99
   5   0 -10   -0.26    2.18
   5   0 -10    2.67    3.02
   5   0  10    2.68    3.36
  -5   0  10    0.10    2.62
  -5   0  10   -0.07    1.46
   5   0  10   -0.88    2.58
   5   0  10    4.37    4.61
   5  -1 -10   13.51    3.35
   5   1  10   11.52    2.47
   5   1  10   13.83    3.17
   5   1  10   16.54    3.12
   5   1  10    9.25    3.87
  -5  -1  10   16.54    2.97
   5  -1 -10    9.83    2.41
   5  -1  10   14.57    2.26
  -5   1  10   15.43    2.63
   5  -1  10   15.54    3.36
   5  -1  10    9.36    3.84
   5  -1  10    4.84    4.10
  -5   1  10   15.05    2.59
   5   1 -10   10.36    2.98
   5   2  10    6.07    2.62
   5   2  10    8.33    2.62
  -5  -2  10    9.13    1.99
   5   2  10    8.92    3.48
   5  -2 -10    9.40    2.91
   5   2  10    4.84    2.28
   5  -2 -10    5.71    2.98
   5  -2  10    7.40    1.87
  -5   2  10    6.12    1.74
   5  -2  10   10.90    5.23
   5  -2  10    9.82    3.41
   5  -2  10    3.63    3.24
  -5   2  10    9.30    2.23
   5   2 -10   10.43    2.60
  -5  -3  10   27.55    3.53
   5  -3 -10   32.26    4.67
   5   3  10   21.45    4.27
   5   3  10   27.11    3.96
  -5   3  10   24.63    3.08
   5  -3  10   24.21    4.58
   5  -3  10   31.73    5.61
  -5   3  10   31.39    3.53
   5  -3  10   28.89    4.96
   5  -3  10   26.04    3.70
   5   3 -10   33.16    4.03
   5   4  10    1.77    2.28
   5  -4 -10   -0.57    1.82
  -5   4 -10    2.92    2.05
   5   4  10    2.51    3.86
  -5  -4  10   -0.35    1.62
  -5   4  10    0.43    1.96
   5  -4  10    3.09    2.56
   5   4 -10    4.88    2.21
   5   4 -10    2.19    1.80
  -5   4  10    1.05    1.63
  -5   5 -10   25.03    3.02
   5  -5  10   25.25    3.72
  -5   5  10   26.68    3.00
  -6   0  10   27.36    2.99
   6   0  10   17.97    3.80
   6   0 -10   23.46    3.73
   6   0  10   37.26    6.34
   6   0 -10   31.27    5.63
  -6   0  10   30.82    4.04
   6  -1 -10    1.28    1.86
  -6  -1  10    2.69    1.49
   6   1  10    6.90    2.70
   6  -1 -10    8.39    2.65
   6   1  10    0.73    2.42
   6   1  10    6.47    3.56
  -6  -1  10    7.49    2.98
  -6   1  10    2.62    1.45
   6  -1  10    3.44    2.97
   6  -1  10    1.14    2.93
   6  -1  10    1.67    2.19
   6   1 -10    5.89    1.98
  -6   1  10    5.43    1.95
   6   2  10    9.06    2.47
   6   2  10   11.55    2.54
   6   2  10   16.43    3.91
   6  -2 -10   10.69    2.48
  -6  -2  10   13.38    2.38
   6  -2  10    8.83    2.81
  -6   2  10   15.91    2.78
   6  -2  10    4.01    3.16
  -6   2  10    9.35    1.87
   6  -2  10    7.93    2.62
  -6   3 -10    1.90    2.88
   6   3  10    4.31    2.59
   6   3  10    2.46    2.81
  -6  -3  10    2.23    1.44
   6  -3 -10    2.96    1.89
   6   3 -10    5.83    1.68
  -6   3  10   -1.82    1.96
   6  -3  10    3.26    2.31
   6  -3  10    7.16    3.87
   6  -3  10    4.49    2.38
   6  -4 -10   30.77    3.56
  -6  -4  10   31.56    2.86
   6   4 -10   28.68    3.39
   6  -4  10   21.66    3.52
   7   0  10    4.24    2.44
  -7   0  10    1.58    2.07
  -7   0  10    0.58    1.99
   7   0 -10   -1.43    1.61
   7   0  10    0.16    2.28
   7   0  10    1.46    2.16
   7  -1 -10    4.75    2.14
   7   1  10   10.67    3.00
   7  -1 -10    7.42    3.02
   7   1  10    7.29    2.56
   7   1  10   12.20    2.83
   7  -1  10    9.42    2.55
   7  -1  10    2.88    2.32
   7   1 -10    8.44    1.65
  -7   1  10    9.51    2.07
  -7  -2  10    9.24    1.99
   7   2  10    6.73    2.31
  -7   2 -10    0.74    3.05
   7  -2 -10    7.47    2.30
   7  -2  10    7.50    2.17
   7   2 -10    8.84    1.78
   7  -2  10    2.52    1.92
  -7   2  10    5.10    1.66
   7  -2  10    5.61    2.36
  -7  -3  10    8.47    1.66
   7  -3 -10    6.88    1.93
   7   3 -10    8.43    1.62
   7  -3  10    7.42    1.81
   0   0  11   -0.45    3.19
   0   0  11    5.80    7.92
   0   0  11   -0.47    3.24
   0   0  11   -2.57    1.90
   0   0  11   -0.31    1.80
   0  -1  11    1.57    1.88
   0  -1  11   -9.60    8.19
   0   1  11    1.27    1.60
   0   1  11    0.84    2.78
   0   1  11   -5.93    8.18
   0  -1  11    8.23    3.55
   0  -1  11   -1.78    3.83
   0   1  11   -1.41    1.77
   0  -1  11    0.06    1.89
   0   1  11    5.09    3.20
   0  -2  11   -0.64    4.54
   0  -2  11   13.22    8.80
   0  -2  11   -1.21    2.05
   0  -2  11    0.28    2.04
   0   2  11  -12.18   11.47
   0   2  11    0.08    1.60
   0  -2 -11    5.03    4.18
   0   2  11    2.30    2.71
   0  -2  11   19.73   13.30
   0   2  11   -0.76    2.82
   0   3  11    4.87    3.14
   0  -3  11    7.48    3.02
   0   3  11    2.85    2.02
   0   3  11    4.51    2.56
   0   3 -11    0.96    4.22
   0   4  11    1.91    2.45
   0   4 -11   -2.02    2.35
   0   4  11    3.49    1.71
   0   4 -11   -4.68    2.54
   0  -4  11    3.79    2.18
   0   4  11   -0.34    1.73
   0   5  11   13.08    2.39
   0   5  11   13.45    2.52
   0  -5  11   18.60    3.34
   0   6 -11    1.43    1.40
   0  -6  11    1.14    1.37
   0   6  11   -0.88    1.41
   0   6  11   -1.98    1.19
   1   0  11   22.96    8.81
   1   0  11    1.35    1.84
  -1   0  11   -1.52    1.60
  -1   0  11   19.77    8.46
  -1   0  11    0.98    1.70
   1   0 -11   -1.13    2.82
   1   0  11    1.44    2.98
   1   0  11    0.15    2.05
  -1   0  11    0.98    3.04
   1   0  11   -3.07    3.31
  -1   0  11    1.31    4.15
  -1  -1  11    5.18    1.99
  -1  -1  11    5.08    3.76
   1   1  11    5.05    1.83
  -1  -1  11    0.11    8.73
   1   1  11   11.71    8.87
   1   1  11   10.13    3.24
   1   1  11    5.62    2.00
   1   1  11    8.38    3.23
   1  -1 -11    4.37    3.04
  -1   1  11    6.42    1.89
  -1   1  11    7.96    2.01
   1   1 -11    8.10    3.20
   1  -1  11    8.42    3.44
  -1   1  11    5.42    3.06
  -1   1  11   14.43    8.81
   1  -1  11   10.25    2.18
  -1   1  11    4.32    3.49
   1  -1  11    4.23    9.40
   1  -1  11    9.35    3.25
   1  -1  11   10.47    3.83
  -1  -2  11   10.41    2.36
   1   2  11    9.56    2.26
   1   2  11    5.37    2.69
   1   2  11    8.57    3.02
  -1  -2  11    7.91    2.35
  -1   2  11   13.01    3.39
   1   2 -11    7.64    3.20
   1  -2  11    1.33    4.27
  -1   2  11   10.64    2.36
   1  -2  11   10.93    4.09
   1  -2  11    5.29    2.12
   1   3  11   12.15    2.76
  -1  -3  11   12.22    2.76
   1   3  11    9.53    2.17
  -1   3 -11    7.15    3.68
  -1  -3  11   14.09    2.46
   1   3  11    6.20    2.76
   1   3  11    9.55    2.03
   1   3 -11    9.44    3.11
  -1   3  11    8.28    2.32
  -1   3  11    4.87    3.14
  -1   3  11    8.75    2.07
   1  -3  11    1.68    5.69
   1  -3  11    5.06    2.38
   1   3 -11    6.34    2.94
   1   4  11    4.68    2.21
  -1  -4  11    0.52    1.97
   1   4  11    0.22    1.89
   1   4  11    6.24    1.86
  -1  -4  11    1.32    2.19
  -1   4  11    3.03    1.99
  -1   4  11    1.04    1.47
   1   4 -11    3.22    2.26
   1   4 -11    2.65    2.65
  -1   4  11    4.40    2.67
  -1   5 -11   14.15    2.88
  -1   5 -11   10.41    2.51
  -1  -5  11   14.62    2.49
   1   5  11   12.98    2.11
   1  -5 -11    8.20    3.78
   1   5  11   12.42    2.48
   1   5 -11   10.84    3.13
  -1   5  11   10.43    2.36
  -1   5  11   12.99    2.21
   1  -5  11    9.14    2.10
  -1   5  11    7.38    1.75
   1   5 -11   15.11    3.00
   1   6  11    7.96    1.45
  -1  -6  11   13.90    2.53
  -1   6 -11    9.02    1.75
   1   6  11    7.40    1.59
   1   6 -11   12.28    2.46
  -1   6  11    7.39    1.60
   1  -6  11    9.59    1.93
   2   0 -11   16.30    3.78
   2   0  11   11.15    3.97
   2   0  11   14.66    3.44
   2   0  11   25.86    9.27
   2   0  11   12.97    2.35
  -2   0  11   44.47   17.13
  -2   0  11   11.13    2.27
  -2   0  11    9.66    2.24
   2   1  11    2.07    1.91
   2   1  11    4.82    2.76
   2   1  11    3.30    3.10
   2  -1 -11   -2.10    2.85
  -2  -1  11    2.06    1.76
  -2  -1  11    1.28    2.00
   2   1  11   -0.57   11.47
   2   1 -11    3.78    2.80
  -2   1  11    8.47    1.90
  -2   1  11    4.67    2.17
   2  -1  11    2.25    1.84
   2  -1  11   23.81   12.34
   2  -1  11    0.89    3.78
   2  -1  11    5.68    3.32
   2   2  11    7.58    2.02
   2   2  11    4.09    2.78
   2   2  11    6.09    2.31
   2   2  11    2.96    2.45
  -2  -2  11    3.47    3.43
   2  -2 -11    8.98    3.69
  -2  -2  11    6.10    2.63
   2  -2  11    9.01    2.29
  -2   2  11    3.57    2.54
   2  -2  11    3.24    4.82
   2  -2  11    4.43    4.99
  -2   2  11    4.63    1.71
   2   2 -11    6.04    2.84
  -2   2  11    4.15    4.32
   2   3  11   40.71    4.75
  -2   3 -11   31.85    6.09
   2   3  11   35.74    4.27
   2   3  11   38.91    5.31
   2   3  11   34.03    4.16
  -2  -3  11   29.97    4.65
  -2  -3  11   40.21    4.42
   2  -3  11   39.02    5.99
   2  -3  11   27.17    6.37
  -2   3  11   36.51    3.78
  -2   3  11   40.04    6.05
   2  -3  11   35.29    4.44
   2   3 -11   42.65    5.47
  -2   3  11   29.40    5.48
  -2   4 -11    0.77    2.44
   2   4  11    7.56    2.21
   2   4  11    4.99    2.11
   2   4  11    1.74    1.63
  -2  -4  11    2.35    2.18
  -2  -4  11    5.80    2.18
  -2   4  11   -1.07    2.33
  -2   4  11    3.27    1.50
   2  -4  11    4.46    4.57
   2   4 -11    1.99    2.33
  -2   4  11    4.57    2.88
   2  -4  11    2.05    1.82
   2   4 -11   -0.66    2.31
  -2  -5  11    2.45    1.80
   2   5  11    1.24    1.58
  -2   5 -11    4.09    1.71
   2  -5 -11    5.93    2.73
  -2   5 -11    0.05    2.80
  -2  -5  11   -2.56    2.68
   2   5  11    2.79    2.06
   2   5  11    3.39    1.82
   2   5 -11    1.48    2.35
   2  -5  11    2.68    1.43
  -2   5  11    3.10    1.42
   2   5 -11    2.61    1.80
  -2   5  11    1.98    3.21
   2   6  11   -0.06    1.30
  -2   6 -11   -1.40    1.01
  -2   6  11   -1.29    0.89
   3   0 -11   -0.13    3.14
   3   0  11    1.49    2.72
  -3   0  11   -0.17    1.54
  -3   0  11    5.13    2.80
   3   0  11   -0.40    3.24
   3   0  11    0.60    1.92
  -3  -1  11   21.20    3.91
  -3  -1  11   22.11    4.37
   3   1  11   29.76    4.95
   3   1  11   20.47    4.46
   3  -1 -11   14.42    3.26
  -3   1  11   19.37    5.10
   3  -1  11   22.59    4.65
  -3   1  11   27.67    4.29
   3   1 -11   24.15    4.41
  -3  -2  11   23.18    3.61
   3  -2 -11   15.84    3.65
  -3  -2  11   16.81    3.30
   3   2  11   23.04    3.56
   3   2  11   28.45    5.03
  -3   2 -11   15.06    4.86
   3  -2  11   25.52    3.72
   3   2 -11   27.26    5.41
  -3   2  11   22.58    3.07
   3  -2  11   16.87    4.73
  -3  -3  11   35.48    4.10
   3   3  11   23.36    4.11
   3   3  11   31.14    3.73
  -3  -3  11   24.43    4.92
   3  -3 -11   31.21    5.93
   3   3  11   29.04    4.61
  -3   3 -11   20.85    4.18
   3  -3  11   19.72    5.02
  -3   3  11   32.34    3.25
   3   3 -11   27.01    4.50
   3  -3  11   29.32    3.72
   3  -3  11   26.72    4.87
  -3  -4  11    0.01    3.99
   3   4  11    0.61    1.49
   3  -4 -11    4.63    2.38
   3   4  11   -0.94    2.57
  -3  -4  11   -0.60    1.76
   3   4  11   -2.89    1.75
  -3   4  11    0.22    1.14
   3   4 -11    0.09    2.12
   3  -4  11    0.41    1.49
   3  -4  11   -0.58    3.54
   3   5  11   14.04    2.45
   3  -5 -11   18.05    2.84
  -3  -5  11   17.44    2.55
  -3   5 -11   11.43    2.42
   3   5  11   17.50    3.20
   3  -5  11   20.55    2.38
  -3   5  11   13.47    2.18
   3   5 -11   16.05    3.30
   3   5 -11   13.66    2.32
   4   0  11   51.91    7.71
   4   0  11   57.57    6.02
  -4   0  11   55.53    4.59
   4   0  11   64.84    7.47
   4   0 -11   51.99    5.63
   4   0 -11   42.40    7.41
   4   0  11   46.25    4.90
   4  -1 -11   15.23    3.60
   4   1  11    9.74    3.23
   4  -1 -11    8.10    2.45
   4   1  11   12.65    2.80
   4   1  11   12.03    2.18
  -4  -1  11   12.29    2.35
   4  -1  11    9.12    2.05
   4  -1  11    2.48    3.56
   4   1 -11   12.07    2.79
   4  -1  11    8.80    3.18
   4  -1  11    9.75    4.48
  -4   1  11    7.90    1.84
  -4  -2  11   12.35    2.35
  -4   2 -11    4.83    4.57
   4   2  11   12.28    2.27
   4  -2 -11   11.75    3.19
   4   2  11   11.94    2.63
   4  -2  11    6.09    4.39
   4  -2  11   10.29    2.01
   4  -2  11    5.73    3.47
   4   2 -11    6.02    2.33
  -4   2  11   13.06    2.39
   4  -2  11    4.60    3.81
   4   3  11    0.51    1.97
  -4  -3  11    7.76    2.13
   4   3  11    0.62    1.90
   4  -3 -11    8.96    2.46
   4   3  11    4.95    2.07
   4  -3  11   -2.11    3.64
  -4   3  11    4.87    1.45
   4  -3  11    3.97    3.43
   4  -3  11    4.93    1.64
   4   4  11    5.21    2.73
   4  -4 -11    4.85    2.43
  -4  -4  11   10.68    2.05
   4   4  11   10.66    2.40
  -4   4 -11    4.99    2.94
   4  -4  11    8.65    1.72
   4  -4  11    4.81    3.21
   4   4 -11    5.64    2.19
  -4   4  11    7.80    1.59
   4   5  11   -3.31    3.13
  -4  -5  11    2.45    1.31
  -4   5 -11   -0.09    1.86
  -5   0  11    0.72    1.37
   5   0  11   -1.48    2.80
   5   0 -11    1.73    1.88
   5   0  11   -1.70    2.04
   5   0  11   -1.32    2.29
   5   0  11    8.08    3.95
   5   0 -11   -0.11    3.04
   5   1  11   34.70    4.06
   5   1  11   29.56    5.16
   5  -1 -11   31.01    5.23
   5  -1 -11   24.86    4.15
   5   1  11   27.99    4.30
  -5  -1  11   31.83    3.19
   5  -1  11   29.93    3.73
  -5   1  11   21.52    2.82
   5  -1  11   30.04    6.04
   5  -1  11   28.65    4.45
   5  -1  11   30.19    4.69
   5   1 -11   25.29    3.76
   5  -2 -11   -0.96    2.69
  -5  -2  11    0.90    1.34
   5   2  11   -1.02    2.18
  -5   2 -11  -10.02    6.40
   5   2  11   -2.01    2.69
   5   2  11   -1.67    2.50
   5  -2  11    4.62    2.70
   5  -2  11   -0.41    2.87
   5  -2  11    4.34    2.14
   5   2 -11   -1.20    1.81
  -5   2  11   -1.24    1.25
   5  -2  11    1.23    2.64
  -5  -3  11   32.96    3.32
   5   3  11   24.27    3.15
  -5   3 -11   19.04    4.00
   5  -3 -11   29.49    4.23
   5   3  11   27.45    4.13
   5   3  11   24.13    3.45
   5  -3  11   26.88    4.52
   5  -3  11   30.16    4.60
   5   3 -11   30.55    3.33
  -5   3  11   22.76    4.22
  -5   4 -11    1.19    2.38
  -5  -4  11    1.06    1.08
   5  -4 -11   -2.84    1.66
   5   4 -11    0.85    1.72
   5  -4  11    1.69    2.33
   6   0  11   29.86    3.76
   6   0 -11   26.81    3.41
   6   0  11   23.42    4.11
  -6   0  11   31.31    2.88
   6   0  11   32.67    4.96
   6  -1 -11    6.41    2.88
   6   1  11    5.37    2.05
   6  -1 -11    2.46    2.54
   6   1  11    6.07    2.52
   6   1 -11    1.79    1.61
   6  -1  11    0.33    2.69
   6  -1  11    1.00    2.80
   6  -1  11    1.70    2.03
  -6   1  11    1.27    1.09
   6  -2 -11   18.55    3.67
   6   2  11   13.38    2.43
   6   2  11   11.56    2.41
  -6   2  11    9.69    1.94
   6   2 -11    8.55    2.10
   6  -2  11   12.04    2.84
  -6  -3  11    3.21    1.17
   6  -3 -11    1.41    1.83
   6   3 -11    0.45    1.31
   6  -3  11   -1.01    1.76
   7   0  11    0.06    2.02
   7   1 -11   29.10    3.02
   7  -1  11   27.37    4.00
   0   0  12  120.45   11.28
   0   0 -12   99.65   10.15
   0   0  12  135.78    9.05
   0   0  12  119.87   10.55
   0   0  12  129.32    8.96
   0  -1 -12    1.29    2.98
   0  -1  12   -3.13    3.87
   0   1  12    2.82    3.14
   0   1  12   -0.79    3.11
   0  -1  12    3.28    5.71
   0  -1  12    1.88    1.74
   0   1  12   -0.47    1.85
   0  -1  12    0.02    1.87
   0   1  12   -0.61    1.50
   0   2 -12   69.17    7.74
   0   2  12   84.13    6.10
   0   2  12   75.61    6.04
   0  -2  12   61.09    6.07
   0   2  12   73.93    7.31
   0  -2  12   83.49    6.44
   0   3 -12    4.59    2.65
   0   3  12    0.38    2.49
   0  -3  12    2.03    1.93
   0   3  12   -2.22    1.50
   0   3  12    0.35    1.56
   0   4  12   10.62    1.95
   0   4 -12   19.68    3.94
   0   4  12   15.93    2.74
   0  -4  12   16.72    3.11
   0   4  12   13.66    2.52
   0  -5  12    2.77    1.55
   0   5  12    0.20    1.15
   0   5  12    1.09    1.21
   0   5  12   -0.13    1.83
   1   0  12    2.44    2.21
  -1   0  12   -1.77    1.61
   1   0  12    1.49    3.18
   1   0  12    3.20    3.29
   1   0 -12    4.78    2.75
  -1   0  12   -0.53    1.69
   1   0  12    0.53    1.58
  -1  -1  12  107.40    7.78
   1   1  12   96.65    8.46
   1   1  12   89.70    7.49
   1   1  12  111.55    7.63
  -1  -1  12   99.01    7.64
   1  -1 -12   82.40    8.58
   1   1  12  106.87    9.61
   1  -1  12   99.49   10.59
   1   1 -12   98.89    8.92
   1  -1  12   86.45    9.26
  -1   1  12  110.73    7.72
  -1   1  12  105.41    7.62
   1  -1  12  108.96    7.81
  -1   1  12   93.26    9.80
   1   2  12    2.05    1.51
  -1  -2  12    0.36    1.94
   1   2  12    3.32    2.55
   1   2  12    2.40    2.55
  -1  -2  12    0.81    1.89
   1   2  12    1.34    2.01
  -1   2  12   -0.85    1.53
  -1   2  12   -1.83    3.23
   1  -2  12    8.99    4.52
   1  -2  12   -2.91    4.10
   1   2 -12    2.44    2.71
   1  -2  12    0.51    1.74
  -1   2  12    1.24    1.77
   1   3  12   26.21    3.48
   1   3  12   23.03    3.61
   1   3  12   29.84    4.36
  -1  -3  12   36.79    3.68
  -1  -3  12   37.34    4.13
  -1   3  12   21.30    3.93
  -1   3  12   27.99    3.70
   1  -3  12   29.52    3.92
   1   3 -12   34.16    4.91
  -1   3  12   27.15    3.04
  -1   4 -12   -3.02    2.24
  -1   4 -12   -0.29    3.79
  -1  -4  12    4.39    1.89
   1   4  12    1.04    1.32
   1   4  12    4.84    2.04
   1   4 -12    1.46    2.18
  -1   4  12    1.38    1.38
  -1   4  12    2.60    1.90
   1  -4  12    3.60    1.77
  -1   4  12    3.76    2.35
   1  -5 -12   32.74    4.79
   1   5  12   35.25    3.49
   1   5  12   26.05    3.06
   1   5  12   29.30    3.13
  -1  -5  12   26.05    3.35
   1  -5  12   37.40    3.24
  -1   5  12   29.42    2.91
  -2   0  12  121.94    8.68
   2   0  12  118.74   11.20
  -2   0  12  119.50    8.72
   2   0  12  118.86    9.56
   2   0 -12  105.11    9.52
   2   0  12  125.71    8.79
   2   1  12    1.09    1.50
  -2  -1  12    1.17    1.93
   2   1  12    5.75    2.44
   2  -1 -12    0.38    2.49
   2   1  12    2.47    3.04
  -2  -1  12   -0.04    1.99
   2  -1  12    0.47    1.80
  -2   1  12   -2.29    2.43
  -2   1  12   -0.39    1.49
   2  -1  12    0.48    3.87
   2  -1  12   -4.86    3.26
   2   2  12   34.76    5.20
   2   2  12   32.73    3.88
   2   2  12   26.71    4.29
  -2  -2  12   32.87    4.19
  -2  -2  12   34.72    4.04
   2   2 -12   37.75    5.14
   2  -2  12   42.56    6.40
  -2   2  12   28.99    6.10
   2  -2  12   32.10    5.28
  -2   2  12   29.91    4.48
  -2   2  12   33.69    3.49
   2  -2  12   41.14    4.08
  -2  -3  12    4.09    2.21
   2   3  12    4.70    1.68
  -2  -3  12    4.32    1.75
   2   3  12    7.18    2.33
   2   3  12    3.63    2.06
   2   3  12    5.34    2.22
  -2   3  12    5.02    1.52
  -2   3  12    4.37    2.56
   2  -3  12    0.50    4.39
  -2   3  12    5.59    3.87
   2  -3  12    4.97    1.90
   2  -4 -12   38.23    4.72
  -2  -4  12   36.52    4.20
  -2  -4  12   38.25    3.72
   2   4  12   29.13    3.87
   2   4  12   27.65    3.50
  -2   4 -12   31.69    5.54
  -2   4 -12   39.05    6.11
   2   4  12   35.39    4.03
   2  -4  12   39.57    3.56
  -2   4  12   35.75    3.22
   2   5  12   -0.40    1.66
   2   5  12    2.05    1.29
  -2   5  12   -0.54    1.14
   2  -5  12    1.41    1.11
  -3   0  12    0.75    1.46
   3   0  12    1.83    1.57
   3   0 -12    2.19    3.06
   3   0 -12    2.24    2.19
   3   0  12    2.03    3.32
   3  -1 -12   49.40    5.59
   3   1  12   60.95    5.19
  -3  -1  12   62.28    4.99
   3   1  12   59.74    7.15
   3   1  12   50.66    5.59
   3   1 -12   59.01    5.69
   3  -1  12   53.19    6.81
   3  -1  12   65.04    5.22
   3  -1  12   60.06    8.37
  -3   1  12   63.58    4.80
   3  -2 -12    4.86    2.45
   3   2  12    0.65    2.11
   3   2  12    3.59    2.09
   3   2  12    1.31    1.56
  -3  -2  12    1.25    1.75
   3  -2  12    0.80    3.33
  -3   2  12    3.90    1.34
   3  -2  12    2.10    1.57
   3  -2  12   -4.07    3.47
   3   2 -12    1.44    2.09
  -3  -3  12   31.17    3.56
   3   3  12   26.77    3.61
   3   3  12   29.94    3.30
   3  -3 -12   21.32    3.63
   3   3  12   30.77    4.16
   3   3 -12   34.12    3.94
  -3   3  12   29.54    2.88
   3  -3  12   26.86    4.40
   3  -3  12   32.09    3.55
   3  -4 -12   -3.32    1.90
   3   4  12   -0.66    1.45
  -3   4 -12    1.74    2.35
  -3  -4  12    2.56    1.62
   3   4  12    0.90    1.83
  -3   4  12   -1.00    1.13
   3  -4  12    0.00    1.35
   4   0  12   51.51    4.54
   4   0 -12   53.88    6.70
   4   0  12   45.46    6.60
  -4   0  12   51.30    4.20
   4   0  12   45.67    4.99
   4   1  12   -3.53    1.96
   4   1  12   -2.24    1.54
  -4  -1  12    2.40    1.40
   4   1  12    0.60    2.79
   4  -1 -12   -0.31    2.05
   4  -1 -12    1.21    2.71
   4  -1  12   -0.36    3.20
  -4   1  12    3.19    1.29
   4  -1  12   -1.58    2.69
   4  -1  12   -1.57    1.49
   4   1 -12    2.71    1.85
   4   2  12   45.86    4.69
   4   2  12   56.41    5.33
   4   2  12   52.49    4.68
   4  -2 -12   54.55    5.76
  -4  -2  12   56.31    4.55
   4  -2  12   55.15    6.58
  -4   2  12   52.24    4.10
   4   2 -12   51.89    4.80
   4  -2  12   43.90    6.06
   4  -2  12   58.07    4.53
  -4  -3  12    3.77    1.87
   4   3  12    2.55    1.75
   4  -3 -12    4.17    2.64
   4   3  12    5.78    2.02
   4   3  12    5.64    3.03
   4  -3  12    2.78    1.39
  -4   3  12    0.56    1.21
   4  -3  12   -2.20    2.74
   4  -4 -12    8.73    1.78
   4   4  12    4.61    2.26
  -4  -4  12   11.00    1.72
  -5   0  12    1.74    1.18
   5   0  12    1.60    1.98
   5   0 -12   -1.37    1.67
   5   0  12    5.04    2.51
   5   1  12   30.10    3.82
   5   1  12   31.35    4.37
   5  -1 -12   25.39    4.89
  -5  -1  12   31.05    2.89
   5  -1  12   27.25    3.78
   5  -1  12   26.54    4.75
   5   1 -12   35.11    4.17
   5   2  12   -1.12    1.95
   5   2  12    3.83    2.01
  -5  -2  12    3.18    1.08
   5  -2 -12    5.51    2.07
  -5   2  12    4.75    1.58
   5  -2  12   -1.93    2.79
   5   2 -12    0.65    1.38
   5  -2  12    1.94    2.51
  -5  -3  12   16.98    2.17
   5  -3 -12   12.22    2.03
   5   3 -12   15.66    2.52
   5  -3  12   13.75    2.50
  -6   0  12   21.30    3.16
   6   0  12   22.03    3.74
  -6  -1  12    5.38    2.01
   6   1  12    5.23    2.52
   6  -1  12    1.44    1.89
   6   1 -12    3.89    1.57
   6  -1  12    3.13    2.33
   0   0  13    0.85    5.39
   0   0 -13    0.11    2.70
   0   0  13    0.18    1.46
   0   1  13   15.19    3.98
   0   1  13    6.86    2.02
   0   1 -13    1.92    2.76
   0  -1 -13    3.68    3.12
   0   1  13    5.06    1.55
   0  -1  13    5.47    1.66
   0   2  13   -2.96    1.68
   0  -2  13   -1.86    1.52
   0   2  13   -0.34    2.68
   0   2  13    0.02    1.49
   0  -3  13    1.67    1.66
   0   3  13    2.69    1.74
   0   3 -13    4.77    2.09
   0   3  13    1.81    1.94
   0   3  13    8.06    2.75
   0  -4 -13   -0.31    2.48
   0  -4  13   -2.15    1.44
   0   4  13    0.46    1.08
   0   4  13    3.28    1.85
   0   4  13    1.36    2.37
   1   0  13   -3.05    3.17
  -1   0  13   -1.19    1.80
   1   0  13    1.63    3.08
   1   0  13   -0.95    1.44
  -1   0 -13   -3.73    2.76
  -1   0  13    0.61    1.70
   1   0 -13    1.11    2.31
  -1   1 -13    1.49    2.87
   1  -1 -13    2.88    2.62
   1   1  13    1.63    2.77
   1   1  13    1.42    1.35
  -1  -1  13    2.89    1.76
  -1  -1  13    0.13    1.53
   1   1  13    0.32    2.73
  -1   1  13    3.04    1.70
   1  -1  13   -0.75    4.88
   1  -1  13    3.91    1.56
  -1   1  13    0.43    1.63
  -1  -1 -13    8.31    3.14
   1  -1  13    5.91    3.63
   1   1 -13    4.60    2.53
  -1  -2  13    6.74    2.03
   1   2  13    6.30    2.12
  -1  -2  13    6.02    1.86
   1   2  13    2.64    1.40
   1   2  13    7.62    2.61
  -1   2 -13    3.21    2.40
   1  -2  13    1.32    1.60
  -1   2  13    3.90    4.53
  -1   2  13    0.99    1.45
   1   2 -13    3.00    2.17
  -1   2  13    4.60    1.76
   1   3  13   -0.06    1.41
   1   3  13    0.71    1.96
  -1   3 -13   -1.52    2.15
   1   3  13    5.17    3.25
  -1  -3  13   -2.08    1.69
  -1   3  13    0.37    1.71
   1  -3  13    1.05    1.46
  -1   3  13    3.63    1.65
  -1   3  13   -5.20    3.80
   1   3 -13   -2.01    2.16
  -1   4 -13    3.57    2.63
   1  -4 -13   -2.14    2.02
   1   4  13    2.58    1.99
  -1  -4  13    0.28    2.93
   1   4 -13    4.46    2.10
  -1   4  13    4.15    1.25
   1  -4  13    1.67    1.27
   2   0  13   12.62    2.50
   2   0 -13    8.97    2.43
  -2   0  13    9.74    1.99
   2   0  13   14.57    3.20
   2   0  13    6.37    3.73
  -2   0  13   10.25    2.90
   2  -1 -13    2.98    2.90
   2   1  13   -1.85    2.43
   2   1  13    3.81    2.73
   2   1  13    0.76    1.35
  -2  -1  13   -0.94    2.59
  -2  -1  13   -0.36    1.47
  -2  -1 -13    6.72    4.39
   2   1 -13    3.35    2.08
   2  -1  13    0.08    3.24
  -2   1  13   -3.03    2.33
   2  -1  13    0.71    3.52
   2  -1  13   -0.11    1.35
  -2   1  13   -0.91    1.36
  -2  -2  13    6.13    2.40
   2   2  13    6.67    1.71
   2   2  13    8.73    2.37
  -2  -2  13    7.61    2.12
  -2   2  13    9.15    3.27
  -2   2  13   12.31    2.08
   2   2 -13    6.02    1.98
   2   3  13    2.14    1.41
  -2   3 -13    4.09    2.16
   2  -3 -13   -1.32    2.07
   2   3  13   -0.66    1.91
   2  -3  13   -0.66    1.26
   2   3 -13    2.99    1.83
  -2   3  13   -0.12    1.00
   2   4  13    3.71    1.48
   2   4  13    3.92    1.86
   2  -4 -13    6.98    2.47
  -2   4  13    5.10    1.33
   2  -4  13    2.56    1.22
   3   0 -13   -1.48    2.71
   3   0  13   -1.09    1.43
   3   0  13    2.57    2.72
   3   0  13   -2.65    2.63
   3   0 -13   -3.75    3.22
  -3   0  13    0.87    1.24
   3   1  13   -0.82    2.36
   3  -1 -13    7.28    3.28
  -3  -1  13    3.43    1.63
   3   1  13    1.90    1.49
   3  -1 -13    1.62    3.07
   3  -1  13    7.91    3.72
   3  -1  13    2.24    1.59
  -3  -1 -13    0.81    3.98
  -3   1  13    3.49    1.29
   3   1 -13   -0.53    1.63
   3  -2 -13   -3.59    2.06
   3   2  13   -3.48    2.25
   3   2  13    1.42    2.17
  -3  -2  13    0.02    1.58
  -3   2  13    0.07    1.50
   3  -2  13    0.66    1.49
   3  -2  13    3.60    3.91
   3   3  13    3.98    1.87
   3  -3 -13    3.04    1.84
   3   3  13    2.57    1.62
  -3   3  13    3.51    1.12
   3  -3  13    3.73    1.45
   3   3 -13    0.62    1.62
  -4   0  13   12.37    2.09
   4   0  13    9.54    2.81
   4   0 -13    9.79    2.07
   4   0  13   18.64    3.49
   4   1  13   -2.18    1.97
  -4  -1  13    3.04    1.42
   4  -1 -13   -0.88    3.25
   4   1  13   -1.22    2.32
   4   1 -13   -0.60    1.59
  -4   1  13    1.95    1.10
   4  -1  13   -0.31    1.56
   4  -1  13   -2.20    2.88
   4  -1  13   -1.28    2.46
   4  -2 -13   36.20    4.14
   4   2  13   33.71    4.31
   4   2  13   21.59    3.04
   4  -2  13   31.34    4.44
   4   2 -13   25.44    2.85
  -4   2  13   26.20    2.56
   0   0  14   66.46    4.99
   0   0 -14   57.38    6.01
   0  -1  14   -1.99    1.55
   0   1  14    0.44    1.82
   0   1 -14   -1.41    2.46
   0  -2  14   40.76    4.01
   0   2  14   28.83    3.56
   0   2 -14   35.15    4.07
  -1   0  14   -2.99    2.03
  -1   0  14   -3.68    2.48
  -1   0 -14   -2.56    2.71
   1   0  14   -0.10    1.19
   1   0 -14    1.59    2.25
  -1  -1  14   41.02    4.10
  -1   1 -14   42.10    5.15
   1   1  14   37.60    3.64
  -1   1  14   34.64    4.29
   1  -1  14   37.16    3.61
   1   1 -14   31.60    4.51
   1   2  14   -1.49    1.43
  -1   2 -14   -0.48    2.23
   1  -2  14   -0.80    1.32
   1   2 -14   -0.64    1.79
  -1   2  14   -0.49    2.61
   2   0  14   42.76    3.78
  -2   0  14   44.40    4.05
   2   1  14    0.90    1.50
   2  -1 -14    5.41    4.36
  -2   1 -14   -2.33    2.81
   2   1  14   -0.41    4.39
   2   1 -14    1.03    1.76
   2  -1  14    1.75    1.35
  -2   1  14   -0.39    1.51
  -2   2 -14   10.60    2.35
   2   2  14    6.69    1.60
   2   2 -14    9.20    1.99
   0   0   0    0.00    0.00
;
_shelx_hkl_checksum               45820
_olex2_submission_special_instructions 'No special instructions were received'
loop_
  _twin_individual_id
  _twin_individual_mass_fraction_refined
 1 0.524(14)
 2 0.476(14)

