data_co_formate_353k
_audit_creation_date              2017-06-21
_audit_creation_method
;
Olex2 1.2
(compiled 2017.03.28 svn.r3405 for OlexSys, GUI svn.r5337)
;
_shelx_SHELXL_version_number      '2016/6'
_publ_contact_author_address      ?
_publ_contact_author_email        ?
_publ_contact_author_id_orcid     ?
_publ_contact_author_name         ''
_publ_contact_author_phone        ?
_publ_section_references
;
Dolomanov, O.V., Bourhis, L.J., Gildea, R.J, Howard, J.A.K. & Puschmann, H.
 (2009), J. Appl. Cryst. 42, 339-341.

Sheldrick, G.M. (2008). Acta Cryst. A64, 112-122.
;
_chemical_name_common             ?
_chemical_name_systematic         ?
_chemical_formula_moiety          '0.25(C12 H12 Co4 O24), H5 N2'
_chemical_formula_sum             'C3 H8 Co N2 O6'
_chemical_formula_weight          227.04
_chemical_absolute_configuration  ad
_chemical_melting_point           ?
loop_
  _atom_type_symbol
  _atom_type_description
  _atom_type_scat_dispersion_real
  _atom_type_scat_dispersion_imag
  _atom_type_scat_source
 'C' 'C' 0.0181 0.0091 'International Tables Vol C Tables 4.2.6.8 and 6.1.1.4'
 'H' 'H' 0.0000 0.0000 'International Tables Vol C Tables 4.2.6.8 and 6.1.1.4'
 'Co' 'Co' -2.3653 3.6143
 'International Tables Vol C Tables 4.2.6.8 and 6.1.1.4'
 'N' 'N' 0.0311 0.0180 'International Tables Vol C Tables 4.2.6.8 and 6.1.1.4'
 'O' 'O' 0.0492 0.0322 'International Tables Vol C Tables 4.2.6.8 and 6.1.1.4'

_shelx_space_group_comment
;
The symmetry employed for this shelxl refinement is uniquely defined
by the following loop, which should always be used as a source of
symmetry information in preference to the above space-group names.
They are only intended as comments.
;
_space_group_crystal_system       'orthorhombic'
_space_group_IT_number            62
_space_group_name_H-M_alt         'P n m a'
_space_group_name_Hall            '-P 2ac 2n'
loop_
  _space_group_symop_operation_xyz
 'x, y, z'
 '-x+1/2, -y, z+1/2'
 '-x, y+1/2, -z'
 'x+1/2, -y+1/2, -z+1/2'
 '-x, -y, -z'
 'x-1/2, y, -z-1/2'
 'x, -y-1/2, z'
 '-x-1/2, y-1/2, z-1/2'

_cell_length_a                    8.5725(2)
_cell_length_b                    11.6308(3)
_cell_length_c                    7.8437(2)
_cell_angle_alpha                 90
_cell_angle_beta                  90
_cell_angle_gamma                 90
_cell_volume                      782.06(3)
_cell_formula_units_Z             4
_cell_measurement_reflns_used     5048
_cell_measurement_temperature     353(2)
_cell_measurement_theta_max       76.91
_cell_measurement_theta_min       7.62
_shelx_estimated_absorpt_T_max    0.433
_shelx_estimated_absorpt_T_min    0.243
_exptl_absorpt_coefficient_mu     17.311
_exptl_absorpt_correction_T_max   0.3472
_exptl_absorpt_correction_T_min   0.1639
_exptl_absorpt_correction_type    multi-scan
_exptl_absorpt_process_details
;
SADABS-2016/2 (Bruker,2016/2) was used for absorption correction.
wR2(int) was 0.1130 before and 0.0660 after correction.
The Ratio of minimum to maximum transmission is 0.4721.
The \l/2 correction factor is Not present.
;
_exptl_absorpt_special_details    ?
_exptl_crystal_colour             pink
_exptl_crystal_density_diffrn     1.928
_exptl_crystal_density_meas       ?
_exptl_crystal_density_method     ?
_exptl_crystal_description        block
_exptl_crystal_F_000              460
_exptl_crystal_size_max           0.114
_exptl_crystal_size_mid           0.097
_exptl_crystal_size_min           0.058
_exptl_transmission_factor_max    ?
_exptl_transmission_factor_min    ?
_diffrn_reflns_av_R_equivalents   0.0527
_diffrn_reflns_av_unetI/netI      0.0198
_diffrn_reflns_Laue_measured_fraction_full 1.000
_diffrn_reflns_Laue_measured_fraction_max 1.000
_diffrn_reflns_limit_h_max        10
_diffrn_reflns_limit_h_min        -10
_diffrn_reflns_limit_k_max        14
_diffrn_reflns_limit_k_min        -14
_diffrn_reflns_limit_l_max        9
_diffrn_reflns_limit_l_min        -9
_diffrn_reflns_number             11448
_diffrn_reflns_point_group_measured_fraction_full 1.000
_diffrn_reflns_point_group_measured_fraction_max 1.000
_diffrn_reflns_theta_full         67.679
_diffrn_reflns_theta_max          76.928
_diffrn_reflns_theta_min          6.808
_diffrn_ambient_temperature       353.0
_diffrn_detector_area_resol_mean  ?
_diffrn_measured_fraction_theta_full 1.000
_diffrn_measured_fraction_theta_max 1.000
_diffrn_measurement_device_type   'Bruker D8 Venture PHOTON 100 CMOS'
_diffrn_measurement_method        'omega scans'
_diffrn_radiation_monochromator   mirrors
_diffrn_radiation_type            CuK\a
_diffrn_radiation_wavelength      1.54178
_diffrn_source                    'INCOATEC Imus micro-focus source'
_diffrn_standards_number          0
_reflns_Friedel_coverage          0.000
_reflns_Friedel_fraction_full     .
_reflns_Friedel_fraction_max      .
_reflns_number_gt                 712
_reflns_number_total              864
_reflns_special_details
;
 Reflections were merged by SHELXL according to the crystal
 class for the calculation of statistics and refinement.
 
 _reflns_Friedel_fraction is defined as the number of unique
 Friedel pairs measured divided by the number that would be
 possible theoretically, ignoring centric projections and
 systematic absences.
;
_reflns_threshold_expression      'I > 2\s(I)'
_computing_cell_refinement        'SAINT v8.37A (Bruker, 2015)'
_computing_data_collection        ?
_computing_data_reduction         'SAINT v8.37A (Bruker, 2015)'
_computing_molecular_graphics     'Olex2 (Dolomanov et al., 2009)'
_computing_publication_material   'Olex2 (Dolomanov et al., 2009)'
_computing_structure_refinement   'XL (Sheldrick, 2008)'
_computing_structure_solution     ?
_refine_diff_density_max          0.183
_refine_diff_density_min          -0.495
_refine_diff_density_rms          0.077
_refine_ls_extinction_coef        .
_refine_ls_extinction_method      none
_refine_ls_goodness_of_fit_ref    1.132
_refine_ls_hydrogen_treatment     mixed
_refine_ls_matrix_type            full
_refine_ls_number_parameters      74
_refine_ls_number_reflns          864
_refine_ls_number_restraints      6
_refine_ls_R_factor_all           0.0346
_refine_ls_R_factor_gt            0.0278
_refine_ls_restrained_S_all       1.129
_refine_ls_shift/su_max           0.000
_refine_ls_shift/su_mean          0.000
_refine_ls_structure_factor_coef  Fsqd
_refine_ls_weighting_details
'w=1/[\s^2^(Fo^2^)+(0.0340P)^2^+0.1862P] where P=(Fo^2^+2Fc^2^)/3'
_refine_ls_weighting_scheme       calc
_refine_ls_wR_factor_gt           0.0639
_refine_ls_wR_factor_ref          0.0676
_refine_special_details           ?
_olex2_refinement_description
;
1. Fixed Uiso
 At 1.2 times of:
  All C(H) groups
 At 1.5 times of:
  All N(H,H) groups, All N(H,H,H) groups
2. Restrained distances
 N8-H8A = N8-H8B
 0.91 with sigma of 0.02
 H8A-N7 = H8B-N7
 1.94 with sigma of 0.02
 H8B-H7A
 -2.2 with sigma of 0.02
 H8B-H8A
 1.52 with sigma of 0.04
3. Others
 Fixed Sof: N7(0.5) H7A(0.5) H7B(0.5) H7C(0.5) N8(0.5) H8A(0.5) H8B(0.5)
4.a Aromatic/amide H refined with riding coordinates:
 C6(H6), C3(H3)
4.b Idealised Me refined as rotating group:
 N7(H7A,H7B,H7C)
;
_atom_sites_solution_hydrogens    mixed
_atom_sites_solution_primary      ?
_atom_sites_solution_secondary    ?
loop_
  _atom_site_label
  _atom_site_type_symbol
  _atom_site_fract_x
  _atom_site_fract_y
  _atom_site_fract_z
  _atom_site_U_iso_or_equiv
  _atom_site_adp_type
  _atom_site_occupancy
  _atom_site_site_symmetry_order
  _atom_site_calc_flag
  _atom_site_refinement_flags_posn
  _atom_site_refinement_flags_adp
  _atom_site_refinement_flags_occupancy
  _atom_site_disorder_assembly
  _atom_site_disorder_group
 Co1 Co 0.500000 0.500000 0.500000 0.02552(15) Uani 1 2 d S T P . .
 O2 O 0.40427(16) 0.56764(12) 0.27461(17) 0.0380(3) Uani 1 1 d . . . . .
 O5 O 0.53164(17) 0.34463(11) 0.36727(17) 0.0389(3) Uani 1 1 d . . . . .
 O4 O 0.21719(16) 0.56512(12) 0.08168(17) 0.0373(3) Uani 1 1 d . . . . .
 C6 C 0.5232(3) 0.250000 0.4405(4) 0.0336(6) Uani 1 2 d S T P . .
 H6 H 0.509584 0.250000 0.558163 0.040 Uiso 1 2 calc RS T P . .
 C3 C 0.2801(3) 0.53124(19) 0.2150(2) 0.0395(4) Uani 1 1 d . . . . .
 H3 H 0.229438 0.473433 0.275382 0.047 Uiso 1 1 calc R . . . .
 N7 N 0.4329(5) 0.761(3) -0.0135(4) 0.050(3) Uani 0.5 1 d D . . A -1
 H7A H 0.426575 0.786213 -0.120646 0.075 Uiso 0.5 1 calc DGR . . A -1
 H7B H 0.412644 0.819226 0.057412 0.075 Uiso 0.5 1 calc GR . . A -1
 H7C H 0.363832 0.705354 0.002863 0.075 Uiso 0.5 1 calc GR . . A -1
 N8 N 0.5853(7) 0.7191(6) 0.0180(7) 0.084(3) Uani 0.5 1 d D . . A -1
 H8A H 0.588(5) 0.685(5) 0.124(4) 0.126 Uiso 0.5 1 d DR . . B -1
 H8B H 0.614(6) 0.666(4) -0.062(4) 0.126 Uiso 0.5 1 d DR . . C -1

loop_
  _atom_site_aniso_label
  _atom_site_aniso_U_11
  _atom_site_aniso_U_22
  _atom_site_aniso_U_33
  _atom_site_aniso_U_23
  _atom_site_aniso_U_13
  _atom_site_aniso_U_12
 Co1 0.0290(2) 0.0271(2) 0.0205(2) 0.00055(15) -0.00020(15) -0.00175(16)
 O2 0.0390(7) 0.0422(7) 0.0328(6) 0.0066(6) -0.0099(6) -0.0063(7)
 O5 0.0547(8) 0.0284(7) 0.0335(7) -0.0003(6) 0.0080(6) 0.0000(6)
 O4 0.0362(6) 0.0464(8) 0.0292(6) 0.0047(6) -0.0064(5) -0.0054(6)
 C6 0.0397(14) 0.0323(14) 0.0288(13) 0.000 0.0026(11) 0.000
 C3 0.0448(10) 0.0443(10) 0.0293(9) 0.0080(8) -0.0078(8) -0.0128(9)
 N7 0.067(2) 0.038(11) 0.0458(16) -0.002(3) 0.0216(14) 0.005(4)
 N8 0.068(3) 0.103(8) 0.082(3) 0.023(3) 0.002(2) 0.008(3)

_geom_special_details
;
 All esds (except the esd in the dihedral angle between two l.s. planes)
 are estimated using the full covariance matrix.  The cell esds are taken
 into account individually in the estimation of esds in distances, angles
 and torsion angles; correlations between esds in cell parameters are only
 used when they are defined by crystal symmetry.  An approximate (isotropic)
 treatment of cell esds is used for estimating esds involving l.s. planes.
;
loop_
  _geom_bond_atom_site_label_1
  _geom_bond_atom_site_label_2
  _geom_bond_distance
  _geom_bond_site_symmetry_2
  _geom_bond_publ_flag
 Co1 O2 2.1019(13) . ?
 Co1 O2 2.1019(13) 5_666 ?
 Co1 O5 2.1031(13) . ?
 Co1 O5 2.1031(13) 5_666 ?
 Co1 O4 2.1097(13) 6_656 ?
 Co1 O4 2.1097(13) 2_565 ?
 O2 C3 1.238(2) . ?
 O5 C6 1.2437(19) . ?
 O4 C3 1.241(2) . ?
 C6 H6 0.9300 . ?
 C3 H3 0.9300 . ?
 N7 H7A 0.8900 . ?
 N7 H7B 0.8900 . ?
 N7 H7C 0.8900 . ?
 N7 N8 1.418(14) . ?
 N8 H8A 0.919(19) . ?
 N8 H8B 0.916(19) . ?

loop_
  _geom_angle_atom_site_label_1
  _geom_angle_atom_site_label_2
  _geom_angle_atom_site_label_3
  _geom_angle
  _geom_angle_site_symmetry_1
  _geom_angle_site_symmetry_3
  _geom_angle_publ_flag
 O2 Co1 O2 180.0 . 5_666 ?
 O2 Co1 O5 92.54(6) 5_666 . ?
 O2 Co1 O5 87.46(6) 5_666 5_666 ?
 O2 Co1 O5 87.46(6) . . ?
 O2 Co1 O5 92.54(6) . 5_666 ?
 O2 Co1 O4 87.41(5) . 6_656 ?
 O2 Co1 O4 87.41(5) 5_666 2_565 ?
 O2 Co1 O4 92.59(5) . 2_565 ?
 O2 Co1 O4 92.59(5) 5_666 6_656 ?
 O5 Co1 O5 180.0 . 5_666 ?
 O5 Co1 O4 92.54(5) 5_666 2_565 ?
 O5 Co1 O4 87.46(5) 5_666 6_656 ?
 O5 Co1 O4 92.54(5) . 6_656 ?
 O5 Co1 O4 87.46(5) . 2_565 ?
 O4 Co1 O4 180.00(7) 6_656 2_565 ?
 C3 O2 Co1 121.72(13) . . ?
 C6 O5 Co1 121.61(14) . . ?
 C3 O4 Co1 121.69(13) . 2_564 ?
 O5 C6 O5 124.5(3) 7_565 . ?
 O5 C6 H6 117.8 7_565 . ?
 O5 C6 H6 117.8 . . ?
 O2 C3 O4 125.71(19) . . ?
 O2 C3 H3 117.1 . . ?
 O4 C3 H3 117.1 . . ?
 H7A N7 H7B 109.5 . . ?
 H7A N7 H7C 109.5 . . ?
 H7B N7 H7C 109.5 . . ?
 N8 N7 H7A 109.5 . . ?
 N8 N7 H7B 109.5 . . ?
 N8 N7 H7C 109.5 . . ?
 N7 N8 H8A 109(2) . . ?
 N7 N8 H8B 111(2) . . ?
 H8A N8 H8B 109(4) . . ?

loop_
  _geom_hbond_atom_site_label_D
  _geom_hbond_atom_site_label_H
  _geom_hbond_atom_site_label_A
  _geom_hbond_distance_DH
  _geom_hbond_distance_HA
  _geom_hbond_distance_DA
  _geom_hbond_angle_DHA
  _geom_hbond_site_symmetry_A
 N7 H7A O5 0.89 2.08 2.954(11) 166.6 3_655
 N7 H7B O2 0.89 2.15 3.02(2) 164.3 7_575
 N7 H7B O4 0.89 2.16 2.84(2) 132.7 7_575
 N7 H7C O4 0.89 2.15 3.03(2) 170.5 .
 N8 H8A O2 0.919(19) 2.40(5) 3.092(6) 132(5) .

loop_
  _geom_torsion_atom_site_label_1
  _geom_torsion_atom_site_label_2
  _geom_torsion_atom_site_label_3
  _geom_torsion_atom_site_label_4
  _geom_torsion
  _geom_torsion_site_symmetry_1
  _geom_torsion_site_symmetry_2
  _geom_torsion_site_symmetry_3
  _geom_torsion_site_symmetry_4
  _geom_torsion_publ_flag
 Co1 O2 C3 O4 -178.80(17) . . . . ?
 Co1 O5 C6 O5 175.56(17) . . . 7_565 ?
 Co1 O4 C3 O2 -177.44(17) 2_564 . . . ?

_shelx_res_file
;
TITL co_formate_80c_a.res in Pnma
    co_formate_353k.res
    created by SHELXL-2016/6 at 16:50:23 on 21-Jun-2017
CELL 1.54178 8.5725 11.6308 7.8437 90 90 90
ZERR 4 0.0002 0.0003 0.0002 0 0 0
LATT 1
SYMM 0.5-X,-Y,0.5+Z
SYMM -X,0.5+Y,-Z
SYMM 0.5+X,0.5-Y,0.5-Z
SFAC C H Co N O
UNIT 12 32 4 8 24
EQIV $1 +X,1.5-Y,+Z
EQIV $2 1-X,0.5+Y,-Z
DFIX 0.91 N8 H8a N8 H8b
DFIX 1.94 H8a N7 H8b N7
DFIX -2.2 H8b H7a
DANG 1.52 H8b H8a

L.S. 4
PLAN  20
SIZE 0.058 0.097 0.114
TEMP 79.85
HTAB N7 O2_$1
HTAB N7 O5_$2
HTAB N7 O4
HTAB N7 O4_$1
HTAB N8 O2
bond
BOND $H
conf
list 4
fmap 2
acta
REM <olex2.extras>
REM <HklSrc "%.\\Co_formate_353K.hkl">
REM </olex2.extras>

WGHT    0.034000    0.186200
FVAR       0.29352
CO1   3    0.500000    0.500000    0.500000    10.50000    0.02898    0.02707 =
         0.02050    0.00055   -0.00020   -0.00175
O2    5    0.404268    0.567641    0.274609    11.00000    0.03904    0.04220 =
         0.03277    0.00660   -0.00988   -0.00632
O5    5    0.531642    0.344625    0.367273    11.00000    0.05472    0.02841 =
         0.03353   -0.00034    0.00795    0.00004
O4    5    0.217192    0.565122    0.081685    11.00000    0.03622    0.04644 =
         0.02920    0.00471   -0.00644   -0.00536
C6    1    0.523177    0.250000    0.440530    10.50000    0.03970    0.03230 =
         0.02882    0.00000    0.00258    0.00000
AFIX  43
H6    2    0.509584    0.250000    0.558163    10.50000   -1.20000
AFIX   0
C3    1    0.280065    0.531242    0.214979    11.00000    0.04481    0.04435 =
         0.02934    0.00802   -0.00778   -0.01284
AFIX  43
H3    2    0.229438    0.473433    0.275382    11.00000   -1.20000
AFIX   0

PART -1
N7    4    0.432903    0.761403   -0.013531    10.50000    0.06669    0.03787 =
         0.04577   -0.00225    0.02160    0.00455
AFIX 137
H7A   2    0.426575    0.786213   -0.120646    10.50000   -1.50000
H7B   2    0.412644    0.819226    0.057412    10.50000   -1.50000
H7C   2    0.363832    0.705354    0.002863    10.50000   -1.50000
AFIX   0
N8    4    0.585262    0.719061    0.017968    10.50000    0.06761    0.10334 =
         0.08185    0.02331    0.00226    0.00783
H8A   2    0.588008    0.684731    0.123501    10.50000   -1.50000
H8B   2    0.613864    0.665887   -0.062334    10.50000   -1.50000
HKLF 4




REM  co_formate_80c_a.res in Pnma
REM R1 =  0.0278 for     712 Fo > 4sig(Fo)  and  0.0346 for all     864 data
REM     74 parameters refined using      6 restraints

END

WGHT      0.0340      0.1862

REM Highest difference peak  0.183,  deepest hole -0.495,  1-sigma level  0.077
Q1    1   0.1645  0.5265  0.3426  11.00000  0.05    0.18
Q2    1   0.5381  0.6629  0.1082  11.00000  0.05    0.17
Q3    1   0.3469  0.8487 -0.2290  11.00000  0.05    0.17
Q4    1   0.3210  0.6730  0.2788  11.00000  0.05    0.16
Q5    1   0.2630  0.4154  0.2223  11.00000  0.05    0.16
Q6    1   0.6628  0.7500 -0.0600  10.50000  0.05    0.16
Q7    1   0.1718  0.4475  0.4223  11.00000  0.05    0.15
Q8    1   0.7242  0.7500  0.1151  10.50000  0.05    0.15
Q9    1   0.2452  0.5074  0.0936  11.00000  0.05    0.14
Q10   1   0.3618  0.2500  0.5134  10.50000  0.05    0.14
Q11   1   0.3216  0.2500  0.6276  10.50000  0.05    0.13
Q12   1   0.4174  0.2500  0.5652  10.50000  0.05    0.13
Q13   1   0.4189  0.5133  0.2250  11.00000  0.05    0.13
Q14   1   0.5934  0.7500  0.1682  10.50000  0.05    0.12
Q15   1   0.3990  0.6573  0.2386  11.00000  0.05    0.12
Q16   1   0.4800  0.8904  0.0518  11.00000  0.05    0.12
Q17   1   0.7697  0.6586 -0.1650  11.00000  0.05    0.12
Q18   1   0.2415  0.6541  0.0940  11.00000  0.05    0.12
Q19   1   0.2325  0.7126 -0.0837  11.00000  0.05    0.12
Q20   1   0.4571  0.9581 -0.0091  11.00000  0.05    0.12
;
_shelx_res_checksum               20136
_shelx_hkl_file
;
   0   0   1    0.02    0.26
   0   0   1    0.13    0.21
   0   0  -1    1.49    0.44
   0   0   2  524.99   23.72
   0   0   2  537.13   24.68
   0   0   2  516.83   23.82
   0   0   2  502.56   24.53
   0   0   3    0.71    2.22
   0   0   3    0.42    0.56
   0   0  -3   -0.08    0.97
   0   0   3   -0.04    0.69
   0   0   3   -0.50    2.20
   0   0   4  495.94   22.46
   0   0   4  449.07   22.60
   0   0  -4  503.30   23.08
   0   0   5    0.41    0.72
   0   0  -5    0.22    1.70
   0   0   5    0.57    1.16
   0   0   5    0.57    0.83
   0   0   5   -0.34    0.70
   0   0   5    1.12    0.83
   0   0   5   -2.43    1.37
   0   0   5    1.17    1.20
   0   0   6   36.91    2.30
   0   0  -6   33.73    4.44
   0   0   6   33.96    4.36
   0   0   6   39.14    2.31
   0   0   6   36.31    2.30
   0   0   6   38.07    2.43
   0   0   6   34.93    3.68
   0   0   7   -0.52    0.89
   0   0   7    0.21    0.92
   0   0   7    0.76    0.91
   0   0   7   -0.49    0.80
   0   0   7   -2.97    2.20
   0   0  -7   -2.27    2.58
   0   0   8   86.98    4.33
   0   0   8   87.89    4.31
   0   0  -9    0.14    0.48
   0   0   9   -0.30    0.58
  -1   0   0   -0.22    0.32
  -1   0   0   -0.16    0.17
  -1   0   0    0.14    0.13
  -1   0   0    0.05    0.40
   1   0   0    0.03    0.30
   1   0   0   -0.26    0.28
  -1   0  -1  943.26   39.62
  -1   0  -1  758.24   38.93
  -1   0  -1  791.32   39.01
  -1   0   1  877.53   38.89
   1   0   1  835.80   38.86
   1   0   1  872.90   39.57
  -1   0   1  892.99   38.82
  -1   0   1  900.06   38.99
   1   0  -1  938.56   39.07
  -1   0   1  768.52   38.86
   1   0   1  864.59   38.82
  -1   0   2  244.07   11.48
  -1   0  -2  238.00   12.21
  -1   0  -2  232.73   10.97
  -1   0  -2  226.63   11.34
   1   0   2  236.97   11.01
  -1   0   2  236.58   10.75
  -1   0   2  246.34   10.95
  -1   0   2  238.73   11.08
   1   0   2  229.77   12.20
   1   0   2  228.83   11.01
   1   0   3   21.36    4.21
  -1   0  -3   17.97    2.20
   1   0  -3   13.80    2.18
  -1   0   3   19.73    3.32
   1   0   3   22.50    4.29
  -1   0  -3   18.46    1.53
  -1   0   3   19.01    1.48
  -1   0   3   20.49    3.25
   1   0   3   18.85    1.80
  -1   0   3   21.02    1.87
   1   0   3   19.61    1.63
  -1   0   4   47.23    2.99
   1   0   4   46.66    3.37
   1   0   4   48.80    3.18
   1   0  -4   42.32    3.73
  -1   0   4   47.39    3.51
   1   0   4   55.18    8.65
  -1   0  -4   54.14    3.88
  -1   0   5   80.50    5.43
  -1   0   5   83.82    5.02
   1   0   5   82.64    4.31
  -1   0   5   81.95    4.39
  -1   0   5   86.61    4.34
   1   0   5   83.43    4.40
   1   0   5   83.69    4.53
   1   0  -5  103.01    6.08
  -1   0   5   82.08    4.26
   1   0   5   91.82    5.11
  -1   0   5   83.23    4.29
  -1   0  -5  100.19    6.10
   1   0   5   87.78    5.39
  -1   0   5   87.79    4.37
  -1   0   6    0.24    0.80
  -1   0  -6   -0.05    2.01
   1   0   6    0.26    0.80
   1   0   6   -2.06    1.66
   1   0   6    0.90    1.04
   1   0   6    0.20    0.82
  -1   0   6    0.83    0.85
   1   0   6    0.25    2.27
   1   0  -6    1.19    2.13
  -1   0   6   -1.35    1.67
  -1   0   7   59.37    3.34
   1   0   7   56.59    3.26
   1   0   7   58.33    3.25
  -1   0   7   58.11    3.36
   1   0   7   60.97    3.23
  -1   0   7   57.18    3.24
  -1   0  -7   58.64    5.82
   1   0   7   61.16    5.42
  -1   0   7   60.12    5.06
   1   0  -7   58.10    6.42
  -1   0   7   61.78    3.29
   1   0   7   61.43    3.25
  -1   0   8   11.39    1.25
   1   0   8    9.66    1.49
   1   0  -8    7.50    1.21
  -1   0   8    6.71    1.32
  -1   0   8    9.31    1.40
   1   0   8   10.34    1.26
  -1   0  -8   10.46    1.55
   1   0   8   10.86    1.20
   1   0  -9   44.26    2.35
  -1   0   9   46.05    2.34
   1   0   9   44.12    2.21
   1   0   9   47.29    2.32
  -1   0   9   48.24    2.61
  -1   0  -9   44.94    2.28
  -1   0   9   38.49    2.46
   2   0   0  878.64   41.74
  -2   0   0 1000.00   42.30
  -2   0   0  835.55   42.09
  -2   0   0  971.78   41.80
  -2   0   0  872.07   41.66
   2   0   0  980.84   42.21
   2   0  -1   68.57    3.55
   2   0   1   61.87    4.18
   2   0   1   63.72    3.21
  -2   0   1   58.60    3.51
  -2   0   1   71.59    3.55
  -2   0   1   71.12    3.25
  -2   0  -1   60.65    3.58
  -2   0  -1   63.19    3.41
  -2   0  -1   64.52    4.29
  -2   0   2  710.90   31.77
  -2   0  -2  701.63   33.31
   2   0   2  688.96   31.84
   2   0   2  674.23   31.74
  -2   0   2  692.65   31.90
   2   0  -2  679.67   32.21
  -2   0   2  701.35   32.13
  -2   0  -2  695.97   31.98
  -2   0  -2  726.56   32.14
   2   0   2  700.15   33.31
   2   0   3  430.29   20.69
  -2   0   3  422.31   20.32
  -2   0  -3  479.85   23.18
   2   0   3  430.32   22.80
  -2   0   3  426.24   21.33
  -2   0   3  436.41   20.83
   2   0   3  440.15   20.66
  -2   0  -3  495.32   21.24
  -2   0   3  446.23   21.92
  -2   0   3  435.79   20.61
  -2   0  -3  469.84   20.71
  -2   0  -4  249.93   11.71
   2   0   4  221.18   11.06
   2   0   4  226.27   11.10
  -2   0   4  225.36   11.32
   2   0  -4  213.62   11.56
   2   0   5   15.03    1.86
  -2   0   5   11.23    1.27
  -2   0  -5   12.72    1.30
   2   0   5   11.04    1.33
   2   0  -5   10.85    2.39
  -2   0   5   10.12    1.20
  -2   0   5   12.12    1.43
   2   0   5   10.44    1.34
   2   0   5   12.11    2.19
  -2   0   5   12.53    1.79
   2   0   5   12.30    2.09
  -2   0   5    9.83    1.62
  -2   0  -5   12.82    2.23
  -2   0   5   12.49    1.62
  -2   0  -6  278.71   13.71
  -2   0   6  296.09   13.93
  -2   0  -6  313.02   15.51
  -2   0   6  297.54   14.80
   2   0   6  300.12   13.82
  -2   0   6  305.38   13.84
   2   0  -6  309.35   15.72
   2   0   6  290.65   13.83
  -2   0   6  318.70   13.91
   2   0   6  297.93   13.83
   2   0   6  289.59   15.12
   2   0   6  298.48   14.80
  -2   0   6  295.47   13.86
  -2   0   7    0.91    2.22
   2   0   7    1.43    0.82
   2   0  -7    2.17    4.19
   2   0   7    0.91    2.54
  -2   0   7    0.51    0.97
  -2   0  -7    1.29    2.66
   2   0   7   -0.30    0.74
  -2   0   7    1.77    0.99
  -2   0   7    1.98    0.89
  -2   0   7    1.06    0.88
   2   0   7    1.43    0.91
  -2   0   8  133.27    6.41
   2   0   8  133.60    6.31
   2   0   8  135.18    6.37
  -2   0  -8  131.96    6.33
  -2   0   8  133.67    6.44
  -2   0   8  138.70    6.42
   2   0  -8  128.47    6.31
  -2   0   8  136.59    6.37
  -2   0   9   -0.76    0.59
  -2   0   9   -0.91    0.42
  -2   0  -9    0.02    0.44
   2   0   9    0.32    0.45
  -2   0   9    0.63    0.48
  -3   0   0   -0.54    0.78
  -3   0   0   -0.02    0.52
   3   0   0    0.10    0.54
  -3   0   0   -0.24    0.34
   3   0   0    0.95    1.28
  -3   0   0   -1.85    1.57
   3   0  -1  595.35   27.83
   3   0   1  585.91   28.56
  -3   0   1  553.88   27.76
   3   0   1  592.16   27.30
  -3   0  -1  626.03   28.93
  -3   0  -1  630.60   27.90
  -3   0   1  608.92   27.90
  -3   0  -1  573.98   27.40
  -3   0   1  627.19   27.40
  -3   0   2   72.11    3.74
  -3   0  -2   73.90    4.18
  -3   0  -2   72.84    4.04
   3   0  -2   63.66    4.44
  -3   0   2   66.36    4.31
  -3   0  -2   71.75    7.19
   3   0   2   68.85    3.78
  -3   0   2   68.71    3.97
   3   0   2   67.25    3.66
   3   0   2   70.12    6.16
  -3   0  -3  151.35    7.44
  -3   0  -3  149.62   11.33
   3   0   3  130.27   10.64
  -3   0   3  134.03    7.02
   3   0   3  140.29    7.19
   3   0   3  139.08    7.09
  -3   0  -3  152.29    7.64
  -3   0   3  143.26    7.11
  -3   0  -4   -2.25    0.98
  -3   0   4   -1.06    0.55
   3   0  -4    0.02    1.82
  -3   0   4   -0.14    0.70
   3   0   4    1.45    1.12
  -3   0  -4   -0.13    1.49
  -3   0   4    1.37    0.69
  -3   0  -4    0.65    1.19
   3   0   4   -0.06    0.69
  -3   0   4   -0.09    1.07
   3   0   4    1.28    1.45
  -3   0   5  179.99    8.48
  -3   0  -5  179.91    8.41
  -3   0  -5  187.07    9.93
   3   0   5  175.76    8.47
   3   0   5  181.10    9.28
  -3   0   5  169.86    9.22
   3   0  -5  202.92   11.09
  -3   0   5  184.42    8.61
   3   0   5  180.11    8.47
  -3   0   5  179.85    8.51
  -3   0   5  172.85    8.57
  -3   0   6   76.01    4.01
   3   0   6   81.76    5.24
  -3   0  -6   78.61    6.57
  -3   0   6   73.18    5.55
  -3   0   6   73.61    4.07
  -3   0  -6   75.61    3.84
   3   0   6   78.68    3.91
  -3   0   6   77.84    4.11
  -3   0   6   77.60    3.97
   3   0   6   76.01    3.94
  -3   0   7  122.50    5.68
  -3   0   7  115.82    5.71
   3   0   7  119.78    5.55
   3   0   7   96.97    7.57
   3   0   7  116.70    5.50
  -3   0   7  117.14    5.60
  -3   0   7  121.15    5.67
  -3   0  -7  110.15    5.41
  -3   0  -7  116.76    5.52
  -3   0   7   95.25    7.40
  -3   0  -7  107.49    8.11
   3   0   8   24.67    1.55
  -3   0   8   26.74    1.82
  -3   0   8   25.31    1.78
  -3   0   8   25.86    1.69
  -3   0   8   25.16    1.84
   3   0   8   24.85    1.68
  -3   0   9   25.17    1.48
  -3   0   9   27.87    1.52
  -3   0  -9   27.89    1.54
   3   0   9   27.35    1.44
   4   0   0  790.69   38.19
  -4   0   0  765.08   38.58
  -4   0   0  880.36   37.90
   4   0   0  817.88   37.11
  -4   0  -1    5.61    4.06
   4   0  -1   -0.11    0.80
  -4   0   1    1.19    0.81
   4   0   1    0.13    0.80
  -4   0   1    0.46    1.14
  -4   0  -1    0.86    1.20
  -4   0  -1    0.05    0.78
   4   0   1    0.32    3.15
   4   0  -2  454.17   21.29
   4   0   2  440.24   21.06
  -4   0   2  459.52   21.61
  -4   0  -2  496.05   21.80
  -4   0  -2  436.60   21.34
   4   0   2  449.72   21.28
  -4   0   2  459.56   21.23
   4   0   3    4.44    1.38
   4   0   3    5.09    1.18
  -4   0   3    6.16    1.20
  -4   0   3    3.82    1.30
  -4   0   3    7.27    1.18
  -4   0  -3    4.69    1.37
  -4   0  -3    5.99    0.78
  -4   0  -3    8.13    2.67
  -4   0   3    5.43    0.83
  -4   0  -4   41.88    3.69
  -4   0   4   39.84    2.18
  -4   0   4   35.45    2.41
   4   0   4   42.10    3.16
  -4   0  -4   40.75    3.81
  -4   0   4   37.34    2.25
   4   0   4   36.46    2.19
  -4   0   4   40.18    2.33
  -4   0   4   38.47    3.06
  -4   0   4   37.25    2.18
  -4   0  -4   36.70    2.14
  -4   0  -5   13.32    2.38
  -4   0   5   17.71    1.52
  -4   0   5   20.28    1.71
  -4   0   5   18.88    1.59
  -4   0  -5   19.87    1.52
   4   0   5   18.87    1.66
   4   0   5   19.97    2.46
  -4   0   5   17.99    2.96
  -4   0   6   59.02    3.26
  -4   0  -6   59.38    3.15
  -4   0   6   58.20    3.39
  -4   0  -6   61.90    3.09
   4   0   6   57.02    3.13
   4   0   6   59.79    3.19
  -4   0  -6   56.18    5.67
  -4   0   6   58.39    3.33
  -4   0   6   57.36    4.67
  -4   0   6   60.61    3.30
   4   0   6   62.05    4.78
  -4   0   7    7.30    1.13
  -4   0   7    5.07    0.97
  -4   0  -7    6.07    0.87
   4   0   7    7.40    1.18
  -4   0   7    7.12    1.15
  -4   0   7    7.29    1.02
  -4   0  -8   30.92    1.77
   4   0   8   31.37    1.77
  -4   0   8   30.88    1.93
  -4   0   8   29.79    2.01
  -4   0   8   32.34    1.81
   4   0   8   30.67    1.67
  -4   0   9    2.40    0.42
  -4   0  -9    2.28    0.34
  -4   0   9    1.46    0.50
   5   0   0    0.87    1.07
  -5   0   0   -0.34    1.46
   5   0  -1  653.44   31.84
  -5   0   1  698.33   31.91
  -5   0  -1  741.18   32.66
  -5   0   1  714.94   32.66
   5   0   1  649.49   31.71
  -5   0  -2   84.33    5.28
   5   0   2   91.66    5.18
   5   0  -2   92.10    5.18
  -5   0   2   87.46    4.41
  -5   0   2   90.27    5.79
  -5   0  -2   99.20    5.94
  -5   0   2   92.44    4.45
  -5   0  -2   88.74    4.43
  -5   0  -2   92.74    4.49
  -5   0   2   87.87    5.13
  -5   0   2   89.33    4.45
  -5   0  -2   95.23    4.51
  -5   0   3  325.01   15.16
  -5   0   3  324.83   15.16
  -5   0   3  323.55   15.19
   5   0  -3  334.60   16.10
  -5   0  -3  322.60   15.16
   5   0   3  339.36   16.03
  -5   0  -3  325.90   15.14
  -5   0   3  313.93   16.06
  -5   0  -3  332.96   16.09
  -5   0   3  327.68   15.16
  -5   0  -3  355.90   16.44
  -5   0   3  327.13   15.89
  -5   0  -3  341.00   15.21
  -5   0   4   -1.43    1.46
   5   0   4    2.10    0.84
   5   0   4    3.95    1.67
  -5   0   4    1.30    0.79
  -5   0  -4    0.51    0.81
   5   0  -4   -0.94    1.81
  -5   0  -4    2.34    0.97
  -5   0   4    1.54    1.78
  -5   0  -4    0.53    1.80
  -5   0  -4    0.22    2.13
  -5   0   5   12.07    1.59
  -5   0  -5   12.43    1.40
  -5   0   5   10.30    1.56
  -5   0  -5    6.60    3.86
  -5   0   5   11.97    1.46
  -5   0   5   10.73    1.54
  -5   0   5   20.28    3.24
   5   0  -5   12.49    2.70
  -5   0   5   13.70    1.45
   5   0   5   11.77    1.38
   5   0   5   10.58    2.33
  -5   0  -5   11.78    1.36
  -5   0   6   -0.24    0.79
  -5   0  -6    0.46    3.35
   5   0   6    0.39    0.69
  -5   0   6    0.28    0.83
  -5   0   6    0.30    2.67
  -5   0   6    0.89    0.97
  -5   0  -6    0.88    0.71
  -5   0  -6   -0.79    0.69
   5   0   6    0.23    0.71
   5   0   6    4.16    2.53
   5   0  -6   -3.71    2.93
  -5   0   6   -1.01    0.93
  -5   0   7   95.27    4.55
  -5   0  -7   91.02    4.42
   5   0   7   90.49    4.45
  -5   0   7   87.90    4.55
  -5   0  -7   94.07    4.39
   5   0   7   91.20    4.40
  -5   0  -8    0.85    0.57
  -5   0  -8    2.51    0.73
  -5   0   8    1.85    0.65
  -5   0   8    1.13    0.58
  -5   0   8    3.25    0.57
  -6   0   0   24.20    3.80
   6   0   0   22.94    3.25
  -6   0   0   21.26    1.59
  -6   0   0   23.91    1.59
  -6   0   0   20.16    1.65
  -6   0   0   21.62    1.73
   6   0  -1   35.54    3.71
  -6   0  -1   33.19    2.23
  -6   0  -1   37.52    2.23
  -6   0   1   40.26    2.28
  -6   0   1   38.48    2.23
  -6   0   1   41.20    4.48
  -6   0  -1   45.43    4.54
  -6   0   1   36.85    2.37
  -6   0  -1   40.47    2.30
  -6   0  -1   38.94    2.36
   6   0   1   44.96    3.50
  -6   0  -1   40.01    2.30
  -6   0   1   36.00    2.21
  -6   0   2  213.51    9.60
  -6   0   2  192.76    9.63
  -6   0  -2  224.46    9.65
  -6   0  -2  210.33    9.62
  -6   0   2  200.63   11.20
  -6   0   2  194.30   10.46
  -6   0   2  204.64    9.59
   6   0  -2  207.95   10.65
  -6   0  -2  218.22   11.35
  -6   0   2  200.96    9.59
  -6   0   2  192.54    9.57
  -6   0  -2  201.23    9.54
  -6   0  -2  199.91    9.55
   6   0   2  215.33   10.57
   6   0   3   62.31    4.54
  -6   0   3   59.70    5.30
  -6   0   3   61.80    3.26
   6   0  -3   63.36    5.02
  -6   0  -3   66.52    5.29
  -6   0  -3   55.69    3.41
  -6   0  -3   58.85    3.24
  -6   0   3   61.15    3.47
  -6   0   3   64.22    4.43
  -6   0  -3   65.63    3.31
  -6   0  -3   62.95    3.22
  -6   0   3   63.73    3.32
  -6   0   3   58.89    3.27
  -6   0   4   16.54    1.58
   6   0  -4   11.57    2.63
   6   0   4   25.14    3.53
   6   0   4   17.00    1.57
  -6   0   4   16.81    1.68
  -6   0   4   17.14    1.70
  -6   0  -4   16.72    1.54
  -6   0   4   18.46    3.32
  -6   0  -4   20.12    1.57
  -6   0   4   18.76    1.67
  -6   0   5   -0.29    0.92
   6   0  -5    1.22    2.76
  -6   0   5    0.12    0.82
  -6   0  -5   -0.50    0.77
   6   0   5   -0.44    0.72
  -6   0   5   -0.61    3.18
  -6   0   5    0.75    0.82
  -6   0   5    0.81    0.79
   6   0   6   85.44    4.31
  -6   0  -6   95.06    4.35
   6   0   6   85.94    4.30
  -6   0   6   88.81    4.51
  -6   0  -6   85.32    4.28
  -6   0   6   87.82    4.47
  -6   0   6   91.73    4.45
  -6   0  -7    3.98    0.56
   6   0   7    2.28    0.61
   6   0   7    2.69    0.50
  -6   0   7    2.02    0.67
  -6   0   7    2.88    0.68
  -6   0   7    3.13    0.72
  -6   0   8   17.52    1.06
  -6   0   8   16.94    1.33
  -6   0   8   18.09    1.08
  -7   0   0    0.55    0.85
  -7   0   0    0.61    0.80
  -7   0   0   -0.80    0.81
  -7   0   0   -0.14    0.73
  -7   0   0    1.71    2.50
  -7   0  -1   97.74    4.89
  -7   0  -1  100.71    4.99
  -7   0  -1  104.94    7.44
   7   0   1  101.66    6.37
  -7   0   1   99.25    5.22
  -7   0  -1   95.16    4.88
  -7   0   1   98.22    4.99
  -7   0   1   99.32    4.98
  -7   0  -1   98.93    5.02
  -7   0   1   99.69    5.02
  -7   0   1  113.32    7.35
  -7   0   2   19.72    1.77
   7   0   2   17.43    2.66
  -7   0  -2   25.52    1.80
  -7   0  -2   21.97    1.63
  -7   0  -2   30.07    4.86
  -7   0  -2   21.16    1.66
  -7   0   2   21.45    1.81
  -7   0   2   22.25    1.82
  -7   0   2   20.04    1.77
   7   0  -2   30.87    5.36
  -7   0  -2   20.53    1.81
  -7   0  -3   79.51    4.12
   7   0  -3   85.46    6.99
  -7   0   3   79.83    4.16
  -7   0  -3   86.19    4.08
  -7   0   3   70.97    4.39
  -7   0  -3   81.89    4.07
  -7   0   3   80.67    4.14
  -7   0  -3   78.28    4.01
  -7   0   3   80.48    4.11
  -7   0   3   81.35    4.12
   7   0   3   79.39    4.06
  -7   0  -3   79.30    9.74
  -7   0   4    0.42    0.76
  -7   0   4    1.04    2.34
  -7   0  -4    1.08    0.74
  -7   0   4    2.91    0.93
  -7   0   4    0.24    0.88
  -7   0  -4    1.02    0.78
  -7   0   4    0.96    0.87
   7   0   4    1.18    0.78
   7   0  -4   -3.48    3.53
  -7   0  -4   -0.31    4.56
  -7   0   5  121.51    5.96
  -7   0   5  120.48    5.98
  -7   0  -5  131.46    5.95
  -7   0   5  117.86    6.02
   7   0   5  119.38    5.89
  -7   0   5  132.08    5.97
  -7   0   6    1.23    0.75
  -7   0   6    0.80    0.63
   7   0   6    0.89    0.48
  -7   0  -6   -0.70    0.54
  -7   0   6   -1.17    0.60
   7   0   6   -0.22    0.56
   7   0   7   38.53    2.14
  -7   0   7   43.95    2.19
  -7   0   7   44.48    2.19
  -7   0  -7   41.71    2.11
  -7   0   7   46.67    2.23
  -8   0   0   60.49    3.19
  -8   0   0   56.12    3.20
  -8   0   0   53.52    3.15
   8   0   0   58.78    5.46
  -8   0   0   53.67    3.09
  -8   0   0   56.29    6.60
  -8   0   1   25.99    2.00
  -8   0  -1   24.53    1.84
  -8   0   1   22.25    4.07
  -8   0  -1   26.95    1.80
  -8   0   1   26.20    2.08
  -8   0  -1   28.88    2.06
   8   0   1   24.89    4.54
  -8   0   1   29.95    2.00
  -8   0  -1   26.50    2.01
  -8   0   1   27.30    2.05
  -8   0  -2   40.54    2.45
  -8   0   2   42.79    2.56
  -8   0  -2   43.13    6.57
  -8   0  -2   42.01    2.58
  -8   0  -2   43.13    2.42
  -8   0   2   39.69    2.53
  -8   0   2   45.01    2.66
  -8   0   2   48.29    8.21
  -8   0   2   44.27    2.59
  -8   0  -2   46.14    2.62
  -8   0   3   24.31    1.88
  -8   0  -3   23.51    1.79
  -8   0   3   25.94    1.85
  -8   0  -3   26.15    1.79
  -8   0   3   25.28    1.85
   8   0   3   23.26    1.76
  -8   0  -3   20.76    1.63
  -8   0  -4   39.63    2.24
  -8   0  -4   37.27    2.23
   8   0   4   40.97    2.29
  -8   0   4   43.31    2.38
  -8   0   4   40.74    2.39
  -8   0   4   38.27    2.38
  -8   0   5    0.78    0.63
  -8   0   5    1.00    0.59
  -8   0  -5   -0.21    0.52
   8   0   5    0.57    0.54
  -8   0   5   -0.39    0.59
   8   0   5   -0.46    0.42
  -8   0  -6   21.51    1.40
   8   0   6   19.51    1.25
  -8   0   6   19.92    1.29
  -8   0   6   23.65    1.38
  -9   0   0    0.60    0.76
  -9   0   0   -0.19    0.72
  -9   0   0   -0.83    0.65
  -9   0  -1   68.38    3.50
  -9   0   1   68.79    3.53
  -9   0  -1   65.70    3.57
  -9   0   1   71.79    3.62
  -9   0   1   68.18    3.62
  -9   0  -1   74.84    3.60
  -9   0   2    2.13    0.83
  -9   0   2    4.26    0.81
  -9   0  -2    2.17    0.65
  -9   0  -2    4.44    0.86
  -9   0  -2    4.24    0.70
  -9   0   2    2.19    0.86
  -9   0  -2    2.65    0.77
   9   0   2    3.35    0.90
  -9   0   2    2.78    0.74
  -9   0   3   40.13    2.31
   9   0   3   39.25    2.21
  -9   0   3   43.21    2.25
  -9   0  -3   38.88    2.12
  -9   0   3   40.53    2.32
  -9   0  -3   41.44    2.27
   9   0   4    0.72    0.59
  -9   0   4    0.92    0.46
  -9   0   4    0.31    0.53
  -9   0   4   -0.08    0.52
  -9   0  -4   -0.20    0.49
  -9   0  -5   14.05    1.00
  -9   0   5   15.54    1.00
  -9   0   5   12.73    0.92
 -10   0   0   48.25    2.50
 -10   0   0   49.15    2.48
 -10   0   0   48.62    2.43
 -10   0   1    1.06    0.53
  10   0   1    1.53    0.56
 -10   0   1    1.28    0.50
 -10   0  -1    0.27    0.68
 -10   0  -1    0.67    0.50
 -10   0   1    0.73    0.52
 -10   0  -1    1.07    0.53
 -10   0   2    8.95    1.40
 -10   0   2   11.99    0.93
 -10   0   2   10.39    0.87
  10   0   2   10.76    0.96
 -10   0  -2   11.59    0.88
 -10   0  -3    5.28    0.64
 -10   0   3    5.32    0.62
 -10   0   3    5.87    0.72
   0  -1   0    0.11    0.11
   0   1   0   -0.01    0.16
   0  -1   0    0.00    0.24
   0   1   0   -0.03    0.15
   0   1   1    0.19    0.34
   0   1   1   -0.15    0.26
   0   1   1    0.10    0.18
   0  -1   1   -0.01    0.25
   0   1  -1    1.06    1.05
   0   1  -1    0.30    0.37
   0   1   1   -0.04    0.45
   0  -1   1   -0.92    0.64
   0  -1  -1    0.68    0.55
   0  -1  -1    0.04    0.25
   0  -1   2    0.70    0.43
   0  -1  -2    0.40    0.41
   0   1   2   -0.30    0.36
   0   1   2   -0.21    0.55
   0  -1   2   -0.23    1.34
   0  -1  -2   -2.14    1.18
   0   1  -2    0.16    0.73
   0  -1   2    0.81    0.52
   0   1   2   -0.73    1.32
   0  -1   2    0.44    0.36
   0  -1   3   85.31    5.93
   0  -1   3   82.60    4.56
   0   1   3   87.75    4.28
   0   1   3   76.11    6.21
   0   1  -3   88.02    4.96
   0   1   3   81.66    4.54
   0  -1   3   87.17    4.37
   0   1   3   76.95    6.07
   0   1  -4    1.86    1.31
   0  -1   4    0.05    0.91
   0  -1   4   -0.24    1.30
   0  -1  -4    1.29    1.34
   0  -1   4   -0.56    5.67
   0   1   4   -0.05    0.89
   0   1   4    0.92    1.13
   0   1   5   50.15    3.41
   0  -1   5   53.05    3.62
   0  -1   5   46.26    2.70
   0   1   5   49.59    3.97
   0   1   5   47.48    2.66
   0  -1  -5   46.04    4.26
   0  -1   5   49.76    2.75
   0   1  -5   58.12    4.27
   0   1   5   47.78    2.69
   0  -1   5   47.51    2.73
   0   1   5   48.44    2.82
   0  -1   5   48.28    4.06
   0   1   5   48.92    2.67
   0  -1   6   -0.12    1.76
   0   1   6   -0.53    0.87
   0  -1  -6    0.03    2.27
   0   1   6   -3.49    1.88
   0  -1   6   -0.23    0.72
   0  -1   6    0.73    0.85
   0  -1   6   -0.05    1.01
   0   1   6   -0.82    0.68
   0   1   6   -0.05    0.87
   0   1  -6    3.18    2.25
   0   1   6    1.01    1.05
   0   1   6   -2.53    1.60
   0  -1   6   -0.89    0.82
   0   1   7    0.71    0.73
   0   1   7   -0.07    2.90
   0  -1   7    0.77    0.91
   0  -1   7    0.10    0.92
   0  -1   7    0.35    0.82
   0   1   7   -0.16    0.82
   0   1   7   -0.93    2.59
   0   1  -7    2.63    4.00
   0   1   7    2.07    0.92
   0  -1  -7    5.48    2.84
   0  -1   7   -2.53    2.27
   0   1   7    0.96    0.90
   0  -1   7   -0.37    0.88
   0  -1   8    0.92    1.12
   0  -1   8    0.56    1.11
   0   1   8   -0.38    0.71
   0   1  -8    0.16    0.93
   0   1   8    0.61    1.00
   0  -1   8   -0.66    0.71
   0  -1  -9    6.80    0.87
   0   1   9    7.53    0.95
   0   1  -9    6.16    0.83
   0  -1   9    7.15    0.82
   0  -1   9    6.27    0.91
   0   1   9    7.16    1.04
  -1   1   0    0.15    0.17
   1  -1   0   -0.10    0.53
   1   1   0    0.30    0.31
   1   1   0    0.32    0.26
  -1   1   0   -0.07    0.35
  -1  -1   0   -0.01    0.17
  -1  -1   0    0.18    0.44
  -1   1   0    0.14    0.22
  -1  -1   0   -0.08    0.41
   1  -1   0   -0.23    0.46
   1   1   0   -0.02    0.46
  -1   1   1    8.10    0.78
   1   1  -1    8.67    0.77
   1  -1   1    7.89    0.65
   1  -1   1    9.48    1.54
  -1   1   1    8.80    0.74
   1   1  -1    7.92    1.29
  -1  -1  -1    9.53    1.37
  -1   1   1    8.34    0.72
   1  -1   1    8.05    1.67
   1  -1   1    7.61    0.83
  -1   1   1    8.99    0.63
  -1  -1   1    9.42    1.30
  -1   1  -1    9.09    0.87
  -1   1  -1    7.76    0.88
   1   1   1    9.36    0.88
  -1  -1   1    7.08    0.97
   1   1   1    8.57    0.70
  -1  -1   1    9.48    0.69
   1   1   1    9.58    1.38
  -1   1   2  162.13    7.15
   1   1  -2  161.46    8.07
   1  -1   2  148.65    7.27
  -1   1   2  138.81    7.72
  -1  -1  -2  154.80    8.47
   1  -1   2  148.56    8.38
   1  -1   2  153.03    7.22
   1   1  -2  135.45    7.42
  -1   1   2  150.06    7.32
   1  -1   2  153.98    8.98
  -1  -1   2  162.92    8.08
  -1  -1   2  157.97    7.20
   1   1   2  151.81    7.19
   1   1   2  149.48    7.29
   1   1   2  148.75    8.32
  -1   1  -2  154.90    7.21
  -1  -1   2  157.34    7.35
  -1   1  -2  143.72    7.53
   1  -1   3    8.89    2.98
  -1  -1  -3    3.46    2.54
  -1   1   3    6.27    2.43
  -1  -1  -3    5.68    0.94
   1  -1   3    4.48    1.02
  -1   1   3    5.44    2.01
  -1   1   3    4.46    1.06
   1  -1   3    4.94    0.94
   1  -1   3   -0.55    3.79
   1   1  -3    4.78    1.22
  -1  -1  -3    3.86    1.14
  -1   1   3    5.83    0.87
  -1  -1   3    5.04    2.41
  -1   1  -3    5.15    0.87
   1   1   3    3.68    0.92
   1   1   3    0.99    2.11
   1  -1  -3    3.35    1.09
   1   1   3    4.66    0.81
  -1  -1   3    4.24    1.04
  -1   1  -3    5.72    1.28
  -1  -1   3    4.40    0.85
   1  -1   4    3.25    1.12
   1  -1   4   -0.12    4.94
   1   1  -4    6.02    1.63
  -1  -1  -4    3.83    1.50
  -1   1   4    5.43    1.09
  -1   1   4    4.81    1.29
   1  -1   4    5.37    1.53
   1   1   4    6.47    1.29
   1   1   4    5.65    1.08
  -1  -1   4    5.83    1.13
  -1  -1   4    4.59    1.49
  -1   1  -4    6.30    1.64
   1  -1  -4    4.17    1.65
  -1   1   5    2.82    0.73
  -1   1   5    1.94    0.68
   1   1  -5    4.27    1.93
  -1   1   5    4.85    1.26
  -1   1   5    2.84    0.90
   1  -1   5    3.71    0.89
  -1  -1  -5   -0.03    1.65
   1  -1   5    1.46    1.72
  -1   1   5    1.28    2.81
   1  -1   5    3.24    0.84
   1  -1   5    2.74    0.97
   1  -1   5    1.85    1.27
  -1   1   5    3.65    0.89
  -1  -1   5    3.92    0.81
  -1  -1   5    5.70    1.16
   1   1   5    4.27    0.79
   1   1   5    3.75    0.99
  -1  -1   5    4.19    0.80
   1  -1  -5    2.71    3.15
  -1  -1   5    2.88    1.46
  -1  -1   5    4.16    0.75
   1   1   5    4.43    0.89
   1   1   5    3.40    0.76
  -1   1  -5    4.46    1.77
   1   1   5    5.34    1.40
   1   1   5    3.58    1.04
   1   1   5    4.41    1.67
  -1   1   6   16.44    1.59
  -1  -1  -6   13.81    2.61
   1  -1   6   17.00    1.63
  -1   1   6   14.26    1.88
  -1   1   6   15.11    1.99
   1  -1   6   21.14    3.11
  -1   1   6   14.83    2.17
  -1   1   6   17.17    2.95
  -1   1   6   14.19    2.15
   1  -1   6   14.22    1.86
   1  -1  -6   16.58    2.94
  -1  -1   6   15.11    1.77
   1   1   6   13.75    2.72
   1   1   6   12.85    2.23
  -1  -1   6   17.22    2.11
  -1  -1   6   14.29    2.20
   1   1   6   16.49    1.54
   1   1   6   18.20    1.81
  -1   1  -6   21.94    3.87
   1   1   6   16.81    1.52
   1  -1   7    4.24    2.30
  -1   1   7    1.12    0.99
  -1   1   7    2.01    2.70
  -1   1   7    1.50    0.82
   1  -1   7    2.28    0.91
  -1   1   7    0.86    0.82
   1   1  -7   -0.25    2.92
  -1   1   7    0.58    0.93
   1  -1   7    2.23    0.81
  -1  -1  -7   -0.80    2.43
   1  -1   7    0.94    0.84
  -1  -1   7    0.64    0.91
   1   1   7    3.13    0.81
  -1  -1   7   -2.15    2.11
  -1  -1   7    2.29    0.84
  -1  -1   7    2.14    0.92
   1   1   7   -4.42    2.61
   1   1   7    2.04    1.02
   1  -1  -7    0.73    3.24
   1   1   7    1.24    0.81
   1   1   7    2.60    0.86
  -1   1  -7    1.02    2.65
   1   1   7   -0.15    3.24
  -1  -1   7    1.18    0.97
   1  -1   8    3.49    0.87
  -1   1   8    3.39    0.73
  -1   1   8    5.48    1.55
  -1   1   8    3.02    1.02
  -1   1   8    2.57    0.77
   1   1  -8    1.85    0.75
   1  -1   8    3.52    0.79
   1   1   8    3.78    0.78
   1   1   8    3.51    0.69
  -1  -1   8    2.73    0.76
  -1  -1   8    2.81    1.02
   1   1   8    3.52    0.78
  -1  -1   8    2.26    0.80
   1   1   8    4.50    1.23
  -1   1  -8    3.37    0.86
  -1  -1  -9    0.81    0.47
   1  -1   9   -0.75    0.42
   1   1  -9    0.04    0.75
  -1   1   9    0.44    0.53
  -1   1   9    0.65    0.54
   1  -1   9    0.40    0.55
  -1  -1   9    0.24    0.51
  -1   1  -9    0.05    0.48
  -1  -1   9    0.19    0.43
   1   1   9   -0.95    0.50
   1  -1  -9    0.42    0.55
  -2  -1   0  126.14    5.61
   2   1   0  122.25    6.22
  -2   1   0  120.45    5.61
  -2   1   0  124.28    5.64
  -2   1   0  114.27    5.93
  -2  -1   0  126.56    6.29
  -2  -1   0  113.57    5.41
   2   1   0  119.96    5.66
   2  -1   0  115.90    5.99
  -2   1   0  104.41    6.11
   2  -1   1  145.34    6.64
   2   1  -1  134.20    6.58
  -2   1   1  141.54    6.50
  -2  -1  -1  142.47    7.60
  -2   1   1  149.57    6.54
   2   1  -1  139.36    7.10
   2  -1   1  133.59    6.38
   2   1  -1  130.66    6.29
  -2   1   1  139.51    6.57
   2  -1   1  125.85    7.52
  -2  -1  -1  117.31    6.69
  -2   1   1  134.00    6.73
  -2  -1   1  154.81    7.17
  -2   1  -1  127.17    6.81
  -2  -1   1  141.37    6.52
   2   1   1  140.65    6.58
   2  -1  -1  145.57    6.45
   2   1   1  144.23    7.51
  -2   1  -1  144.99    6.70
  -2   1  -1  134.60    7.65
  -2   1   2   30.01    1.81
   2  -1   2   30.46    1.96
   2   1  -2   29.50    2.12
  -2   1   2   31.08    2.03
  -2   1   2   30.21    1.86
  -2  -1  -2   29.60    2.26
  -2  -1  -2   33.98    4.48
  -2   1   2   31.43    1.89
   2   1  -2   31.73    2.96
   2  -1   2   26.40    1.84
  -2   1   2   27.66    2.25
  -2  -1  -2   26.36    2.28
   2  -1   2   35.32    4.00
  -2  -1   2   32.11    1.89
  -2   1  -2   27.20    2.20
   2   1   2   30.06    1.89
   2   1   2   30.96    3.73
  -2   1  -2   30.02    2.20
  -2  -1   2   27.93    2.15
  -2  -1   2   28.93    2.83
   2   1   2   28.95    1.97
   2   1  -3  148.13    8.65
   2  -1   3  114.62   11.50
   2   1  -3  139.44    7.19
  -2   1   3  135.84    6.49
  -2   1   3  134.48    7.00
  -2   1   3  134.44    7.19
  -2  -1  -3  147.40    6.94
  -2   1   3  130.83    8.60
   2  -1   3  135.84    6.90
   2  -1   3  141.18    9.92
  -2   1   3  141.29    6.74
   2  -1   3  129.66    6.84
  -2  -1  -3  141.77    7.40
  -2   1  -3  146.23    7.31
  -2  -1   3  134.78    6.76
   2   1   3  138.51    9.30
  -2  -1   3  132.64    8.13
  -2   1  -3  138.52    6.86
   2   1   3  141.86    7.10
   2   1   3  136.67    6.80
  -2  -1   3  128.99    6.56
  -2  -1  -4    3.86    1.50
   2  -1   4    2.50    1.39
   2   1  -4    2.85    1.63
  -2   1   4    2.21    0.95
   2  -1   4    5.01    8.97
  -2   1   4    3.24    1.33
   2  -1   4    2.74    1.07
  -2   1  -4    5.00    1.46
   2   1   4    1.99    1.16
  -2  -1   4    1.46    1.07
   2   1   4    3.87    1.14
   2  -1  -4    0.61    1.76
  -2   1   5    0.76    0.90
  -2   1   5    2.60    0.81
  -2   1   5    1.49    0.82
   2  -1   5    0.88    0.80
   2  -1   5   -0.23    1.26
  -2   1   5    3.36    0.77
   2   1  -5    3.48    1.92
   2  -1   5    1.23    1.09
  -2  -1  -5    4.42    1.76
  -2   1   5   -0.01    1.30
  -2   1   5    3.18    0.70
   2  -1   5    3.18    0.76
  -2   1   5    3.23    1.67
  -2  -1  -5    1.88    0.75
   2   1   5    4.45    1.73
   2   1   5    0.82    0.93
   2  -1  -5    1.89    2.10
  -2  -1   5    3.35    1.02
  -2  -1   5    2.70    0.85
   2   1   5    2.14    0.90
   2   1   5    3.12    0.80
  -2  -1   5    1.99    0.66
   2   1   5    2.91    1.30
   2   1   5    3.30    1.10
  -2   1  -5    1.74    0.87
  -2  -1   5    2.43    1.32
  -2  -1   5    3.09    0.71
  -2   1  -5    0.96    1.59
  -2   1   6    2.31    1.03
  -2   1   6    0.00    0.77
   2  -1   6    2.73    1.82
   2  -1   6    0.63    0.83
  -2   1   6   -0.43    0.70
  -2  -1  -6    0.67    2.03
   2   1  -6   -1.72    2.69
   2  -1   6   -0.16    0.92
  -2   1   6    1.17    0.76
   2  -1   6    0.35    0.84
   2   1   6   -0.59    1.84
   2   1   6   -1.37    1.18
   2   1   6   -0.51    1.08
  -2  -1   6    1.89    0.77
   2   1   6   -1.71    2.33
   2   1   6    1.71    1.54
  -2   1  -6   -1.22    2.24
   2  -1  -6    1.72    2.68
  -2  -1   6    2.58    1.72
  -2  -1   6   -1.11    0.94
   2   1   6    0.13    0.81
  -2  -1   6    0.54    0.79
  -2  -1   6   -0.13    0.84
  -2   1   7    1.10    0.92
   2  -1   7    0.11    0.76
   2  -1   7    0.50    0.86
   2  -1   7    3.87    2.41
  -2   1   7    0.47    1.07
  -2   1   7    0.79    0.93
  -2  -1  -7    0.79    2.62
   2   1  -7   -0.13    0.81
  -2   1   7   -0.48    0.77
  -2   1   7    1.77    2.50
   2   1   7   -0.32    0.79
  -2   1  -7    0.21    0.78
  -2  -1   7   -0.14    0.89
   2   1   7   -1.50    4.33
  -2  -1   7    1.06    0.87
   2   1   7    0.67    0.84
   2   1   7    1.31    0.75
  -2  -1   7    1.67    0.96
  -2  -1   7    1.62    1.01
  -2   1  -7    1.97    2.74
   2   1   7   -0.26    0.86
  -2  -1   7   -2.96    2.23
  -2   1   8    1.00    0.65
  -2   1   8   -0.17    0.83
   2   1  -8    1.84    0.96
   2  -1   8    1.20    0.73
  -2   1   8    2.04    0.81
   2  -1   8    1.72    0.68
  -2  -1  -8    1.07    0.62
  -2   1   8    0.97    0.81
  -2   1  -8    0.64    0.61
  -2  -1   8    1.51    0.76
  -2  -1   8    0.59    0.84
   2   1   8    0.40    0.59
  -2  -1   8    0.86    0.77
   2   1   8    1.12    0.83
   2  -1   9    0.60    0.63
   2  -1   9    0.15    0.40
  -2   1   9    0.30    0.47
  -2   1   9    0.03    0.52
  -2  -1  -9   -0.27    0.41
  -2  -1   9    0.51    0.59
  -2  -1   9    0.01    0.52
  -2  -1   9    0.04    0.51
   2   1   9    0.25    0.43
  -2   1  -9   -0.05    0.47
  -3  -1   0    0.39    0.92
  -3   1   0   -0.53    1.75
  -3  -1   0   -0.02    0.48
  -3   1   0    0.11    0.88
   3   1   0   -2.00    1.38
   3   1   0    0.21    0.53
  -3  -1   0   -0.99    1.36
   3  -1   0    0.15    0.45
   3  -1   0    1.15    1.27
  -3   1   1   95.75    5.19
  -3  -1  -1   93.31    5.34
  -3  -1  -1   97.41    6.66
  -3   1   1   90.53    5.49
   3  -1   1   92.13    4.59
   3  -1   1   81.49    5.96
   3   1  -1   99.25    4.85
  -3   1   1   95.76    4.64
   3   1  -1   95.44    5.70
  -3   1   1  101.19    4.77
   3  -1  -1   99.83    4.94
   3   1   1   94.43    6.16
  -3  -1   1   89.30    5.29
   3   1   1   95.96    4.81
  -3   1  -1   98.00    4.87
  -3   1  -1   95.05    9.03
  -3  -1   1   96.55    5.68
  -3   1  -1   97.68    5.33
  -3  -1   1  101.11    4.77
   3   1  -2  131.47    6.61
   3   1  -2  129.60    7.85
  -3   1   2  144.66    6.81
   3  -1   2  145.15    6.97
  -3  -1  -2  141.29    7.29
  -3   1   2  139.99    7.01
   3  -1   2  132.64    6.65
   3  -1   2  136.58    9.12
  -3  -1  -2  153.56    7.20
  -3  -1   2  144.64    7.83
  -3  -1   2  144.23    6.83
  -3  -1   2  137.37    7.22
   3   1   2  136.59    6.85
  -3   1  -2  153.85    9.47
   3   1   2  117.41    8.62
  -3   1  -2  132.85    7.11
   3   1   2  140.96    6.87
  -3   1  -2  145.30    7.26
   3  -1   3   27.09    2.42
  -3  -1  -3   27.64    2.64
  -3  -1  -3   14.69    5.82
  -3   1   3   24.88    2.04
   3   1  -3   26.19    2.63
  -3   1   3   23.32    2.00
   3  -1   3   26.10    2.11
  -3  -1  -3   27.08    2.63
  -3   1  -3   25.37    2.63
  -3   1  -3   28.96    2.76
   3   1   3   28.93    2.12
  -3  -1   3   24.34    2.26
   3   1   3   24.38    2.25
   3   1   3   40.06    7.02
  -3  -1   3   27.27    2.06
   3   1  -4    5.47    1.95
  -3   1   4    3.37    0.85
  -3  -1  -4    5.76    1.67
   3  -1   4    2.93    1.27
  -3   1   4    3.81    0.70
  -3  -1  -4    4.68    1.57
  -3   1   4    2.66    1.01
  -3   1   4    4.10    0.85
  -3  -1   4    4.15    0.93
  -3  -1   4    4.37    1.24
  -3  -1   4    4.69    0.75
  -3   1  -4    3.29    1.61
   3  -1  -4    3.22    2.05
  -3   1  -4    4.33    0.81
   3   1   4    4.44    1.46
  -3  -1   4    3.35    0.68
  -3   1  -4    2.67    1.50
   3   1   4    4.72    0.81
   3   1   4    3.29    1.12
  -3  -1   4    3.76    0.92
  -3  -1  -5    3.74    0.74
  -3   1   5    4.11    1.43
  -3   1   5    3.09    0.76
   3   1  -5    3.00    2.73
  -3   1   5    3.63    0.78
   3  -1   5    2.94    0.75
  -3  -1  -5    2.54    1.70
   3  -1   5    4.16    0.92
   3  -1   5    0.59    1.36
  -3   1   5    3.53    0.89
  -3   1   5    3.32    0.87
  -3   1  -5    1.11    1.73
  -3  -1   5    2.97    0.88
  -3  -1   5    3.05    0.79
  -3  -1   5    4.01    1.53
   3   1   5    2.64    0.83
   3  -1  -5    3.59    2.80
  -3  -1   5    2.60    0.72
  -3  -1   5    3.74    0.93
   3   1   5    3.32    0.80
   3   1   5    1.18    1.36
  -3   1  -5    2.08    0.77
   3   1   5    4.44    1.89
  -3   1   6    2.74    1.81
  -3   1   6    1.62    0.76
  -3  -1  -6    2.20    0.69
   3  -1   6    3.48    0.86
  -3   1   6    1.33    0.88
   3  -1   6    0.10    3.34
  -3   1   6    2.20    1.10
   3  -1   6    2.43    0.87
  -3   1   6    1.82    0.91
  -3  -1   6    1.88    1.09
   3   1   6    2.61    0.82
   3   1   6    0.61    2.04
  -3   1  -6    3.78    0.85
  -3   1  -6    2.12    0.77
  -3  -1   6    2.61    0.89
   3  -1  -6    4.20    3.87
   3   1   6    2.37    0.86
  -3  -1   6    3.29    0.98
  -3  -1   6    2.67    1.04
   3  -1   7    5.32    0.89
  -3  -1  -7    2.16    2.74
  -3  -1  -7    4.68    0.74
   3  -1   7    4.95    0.90
  -3   1   7    1.09    2.98
   3  -1   7   -1.26    2.66
  -3   1   7    3.90    1.11
  -3   1   7    4.96    0.99
  -3   1   7    3.76    0.98
   3   1  -7   -0.51    3.01
  -3   1   7    4.13    0.87
  -3   1  -7    4.84    0.79
  -3  -1   7    5.05    1.04
   3   1   7    5.52    0.80
   3   1   7    2.96    0.81
  -3   1  -7    3.09    2.90
  -3  -1   7    5.50    1.03
  -3  -1   7    4.67    1.06
  -3   1  -7    5.79    0.95
  -3  -1   7    4.79    1.10
  -3   1   8    0.60    0.81
  -3   1   8   -1.02    0.61
  -3  -1  -8   -0.16    0.54
   3  -1   8   -0.93    0.66
  -3   1   8    0.33    0.60
   3  -1   8    0.84    0.71
  -3   1   8    0.82    0.79
  -3  -1   8   -0.41    0.69
  -3  -1   8   -0.38    0.61
   3   1   8   -0.15    0.65
  -3  -1   8   -0.65    0.70
  -3   1  -8    0.30    0.68
  -3   1   9   -0.05    0.72
   3  -1   9    0.03    0.41
  -3   1   9   -0.43    0.44
  -3  -1  -9    0.58    0.48
   3  -1   9    0.35    0.46
  -3  -1   9    0.53    0.34
  -3  -1   9    1.06    0.45
  -3  -1   9    0.80    0.67
   3   1   9    1.15    0.43
  -3   1  -9    0.56    0.47
  -4   1   0  161.58   10.08
  -4   1   0  173.02    9.06
  -4  -1   0  173.28   10.31
   4  -1   0  169.40    8.30
  -4  -1   0  195.36    9.22
  -4   1   0  168.29    8.17
   4  -1   0  161.41    9.28
  -4  -1   0  182.02    8.38
   4   1   0  159.57    9.82
   4   1   0  181.31    8.43
   4  -1   1   31.35    2.25
  -4   1   1   37.91    4.74
  -4  -1  -1   27.70    4.69
  -4   1   1   32.70    2.15
   4   1  -1   34.08    2.48
  -4   1   1   35.72    2.38
  -4   1   1   34.60    3.11
  -4  -1  -1   40.21    3.26
   4  -1  -1   31.12    3.39
   4   1   1   33.03    2.38
  -4   1  -1   33.14    2.35
  -4  -1   1   36.35    3.24
   4   1   1   27.87    5.05
   4  -1  -1   33.39    2.29
  -4  -1   1   36.15    2.35
  -4   1  -1   34.71    3.04
   4  -1   2    1.94    1.00
   4   1  -2    1.73    1.04
  -4  -1  -2   -0.41    1.20
  -4  -1  -2    1.41    1.01
  -4  -1  -2    0.47    5.98
  -4   1   2    0.49    0.83
  -4   1   2    1.39    1.15
  -4  -1   2    3.06    1.42
  -4   1  -2   -0.02    1.26
  -4  -1   2    1.19    1.01
   4   1   2   -0.10    0.91
  -4   1  -2    0.32    1.06
   4   1   2    0.78    0.94
   4   1   2    3.07    8.55
   4  -1   3   -1.11    1.05
  -4  -1  -3   -1.25    1.17
  -4   1   3    0.06    0.95
  -4  -1  -3   -0.49    0.59
   4   1  -3   -1.24    1.13
  -4   1   3   -0.02    0.61
  -4   1   3    0.42    1.13
   4   1   3    1.96    1.00
  -4  -1   3   -0.04    1.29
  -4   1  -3   -1.34    0.62
  -4  -1   3    0.67    0.75
  -4  -1   3   -0.08    0.60
  -4   1  -3   -0.30    1.32
  -4  -1   3   -0.59    0.64
  -4  -1   3   -0.22    1.02
   4   1   3   -0.05    1.17
  -4   1  -3    0.38    0.84
  -4  -1  -4    3.75    1.79
   4  -1   4    5.88    1.61
  -4  -1  -4    4.41    1.51
  -4  -1  -4    8.01    1.06
   4  -1   4    8.79    1.23
  -4   1   4    7.49    1.22
  -4   1   4    6.88    1.06
  -4   1   4    4.98    0.96
  -4   1   4    5.71    1.48
  -4   1   4    7.27    1.06
  -4   1   4    6.74    0.89
  -4  -1   4    7.46    1.09
  -4  -1   4    6.38    1.01
  -4   1  -4    7.04    1.91
  -4   1  -4    7.02    0.90
   4   1   4    7.16    1.94
   4   1   4    5.18    0.82
  -4   1  -4    9.88    1.32
  -4  -1   4    6.43    0.97
  -4  -1   4    5.54    0.84
  -4   1  -4    6.32    1.68
  -4  -1   4    5.91    1.53
  -4  -1   4    7.00    0.93
   4   1   4    6.19    1.43
   4  -1   5   -0.07    1.60
   4  -1   5    3.10    1.05
  -4   1   5    1.41    1.55
  -4   1   5    1.74    0.87
  -4   1   5    2.31    0.77
  -4   1   5    1.27    0.77
  -4   1   5    1.53    0.96
  -4  -1  -5    1.24    0.67
  -4  -1  -5    4.28    1.98
   4   1  -5    2.91    2.12
  -4  -1   5    1.13    0.99
  -4  -1   5    1.03    0.85
   4   1   5    3.49    1.72
  -4   1  -5    2.01    0.70
  -4  -1   5    2.29    0.84
  -4   1  -5    2.55    0.83
  -4   1  -5    0.99    1.96
  -4  -1   5   -0.64    1.59
   4   1   5    2.63    1.31
   4   1   5    2.31    0.86
  -4  -1   5    1.02    0.87
  -4  -1   5    2.01    0.84
  -4   1   6   -2.84    2.23
   4  -1   6    1.78    0.76
  -4  -1  -6    2.44    0.77
  -4   1   6    1.33    0.92
  -4   1   6    2.32    1.03
   4  -1   6    1.75    0.85
  -4   1   6    1.87    0.92
  -4  -1  -6    2.10    2.36
   4   1  -6    2.13    2.55
  -4   1   6    1.88    0.82
   4  -1   6    0.79    2.04
  -4  -1   6    2.48    1.02
  -4  -1   6    1.97    0.97
   4   1   6    1.31    0.76
  -4   1  -6    0.35    0.82
  -4   1  -6    1.45    2.36
  -4  -1   6    5.30    2.13
  -4  -1   6    0.17    0.88
   4   1   6    2.10    0.76
  -4   1  -6    1.91    0.69
  -4  -1   6    1.55    0.93
   4   1   6   -1.45    2.37
  -4   1   7    0.03    0.88
  -4  -1  -7    0.10    0.80
  -4   1   7   -0.26    0.81
   4  -1   7    0.35    1.00
  -4   1   7   -0.01    0.92
   4   1   7   -0.47    0.56
  -4  -1   7    0.30    0.81
  -4  -1   7    0.14    0.96
  -4   1  -7   -0.58    0.67
   4   1   7   -0.16    0.71
  -4   1  -7    0.65    0.73
  -4  -1   7   -0.34    0.90
  -4  -1  -8    1.84    0.56
   4  -1   8    1.87    0.50
  -4  -1  -8    0.73    0.89
  -4   1   8    1.64    0.75
   4  -1   8    1.27    0.72
  -4   1   8    1.73    0.57
  -4   1   8    0.61    0.66
   4   1   8    0.67    0.84
  -4  -1   8    1.28    0.60
  -4  -1   8    1.18    0.66
  -4   1  -8    1.57    0.53
  -4  -1   8    1.30    0.73
  -4   1   9    1.02    0.36
  -4   1   9    1.66    0.37
  -4  -1  -9    0.23    0.40
  -4  -1   9    1.94    0.41
  -4   1  -9    1.87    0.33
  -4  -1   9    0.92    0.32
   4   1   9    1.02    0.28
   5  -1   0    0.38    1.12
  -5  -1   0    4.11    1.57
   5   1   0    0.77    1.07
  -5   1   0    0.60    1.54
  -5  -1  -1    4.54    1.27
  -5  -1  -1    4.26    1.51
  -5   1   1    3.90    1.05
   5  -1   1    6.87    1.34
  -5   1   1    4.96    0.80
  -5   1   1    3.64    1.64
   5   1  -1    4.70    1.17
  -5   1   1    3.43    1.09
  -5   1  -1    4.54    1.09
  -5  -1   1    6.23    1.25
  -5   1  -1    7.34    1.16
  -5   1  -1    4.36    1.75
  -5  -1   1    4.83    1.17
  -5  -1   1    2.17    1.57
   5  -1  -1    6.01    1.39
   5   1   1    6.24    1.47
  -5  -1   1    6.42    0.90
  -5  -1  -2    8.27    0.94
  -5   1   2    6.85    0.86
   5   1  -2    6.47    1.59
  -5   1   2    9.71    1.10
  -5   1   2    9.32    1.87
  -5  -1  -2    7.94    1.11
  -5   1   2    7.08    1.38
   5  -1   2    5.77    1.54
  -5  -1  -2    7.43    0.99
  -5  -1  -2    8.47    1.94
  -5   1   2    6.43    0.85
  -5   1  -2    7.28    1.20
   5  -1  -2    8.77    1.75
  -5   1  -2    9.08    0.93
  -5   1  -2    6.67    0.90
  -5  -1   2    8.18    1.05
  -5  -1   2    8.15    1.11
  -5  -1   2    7.00    1.91
  -5   1  -2    9.11    1.25
  -5  -1   2    5.40    1.47
  -5  -1   2    9.41    1.38
  -5   1  -2    7.94    2.31
   5   1   2    6.12    1.58
  -5  -1   2    5.51    0.83
   5   1   2    7.54    1.41
  -5   1  -2    8.23    1.94
  -5   1   3    7.20    0.95
  -5   1   3    5.13    1.46
  -5  -1  -3    8.28    1.32
  -5  -1  -3    6.45    0.94
   5   1  -3    7.12    1.75
  -5  -1  -3    6.31    1.76
   5  -1   3    7.70    1.67
  -5   1   3    9.21    1.17
  -5  -1  -3    7.27    1.03
  -5   1   3    7.42    1.17
  -5  -1  -3    9.31    2.02
  -5   1   3    7.57    1.09
  -5   1   3    8.29    1.77
  -5   1  -3    9.01    1.02
  -5  -1   3    7.48    1.21
  -5  -1   3    9.19    1.94
  -5  -1   3    8.25    1.14
  -5  -1   3    9.14    1.18
  -5  -1   3    7.49    1.16
  -5   1  -3    7.68    1.08
  -5   1  -3    5.59    1.96
  -5   1  -3    8.02    0.99
  -5   1  -3    8.84    1.05
   5  -1  -3    6.56    1.63
   5   1   3    7.90    1.41
  -5  -1   3    6.86    1.57
  -5   1  -3    4.49    1.72
  -5  -1  -4    7.02    2.03
   5  -1   4    8.86    1.75
  -5  -1  -4    5.19    0.98
  -5   1   4    7.27    0.97
   5   1  -4    8.03    1.84
  -5  -1  -4    5.69    1.02
   5  -1   4    6.31    0.90
  -5   1   4    5.65    1.68
  -5   1   4    8.57    1.62
  -5  -1  -4    4.04    2.33
  -5   1  -4    7.56    1.01
  -5  -1   4    4.92    0.93
   5   1   4    6.16    1.68
  -5   1  -4    5.59    2.29
  -5   1  -4    4.02    1.03
  -5  -1   4    5.24    0.91
  -5   1  -4    6.67    0.97
  -5  -1   4    6.10    1.41
  -5   1  -4    6.08    2.07
  -5  -1   4    5.03    1.67
  -5  -1   4    5.79    0.91
  -5  -1   4    7.88    1.32
  -5  -1  -5    0.60    2.74
   5  -1   5    3.82    1.96
  -5   1   5    4.29    0.92
   5  -1   5    3.67    0.84
  -5  -1  -5    4.90    0.88
  -5   1   5    2.68    1.03
  -5   1   5    3.08    0.88
  -5   1   5    1.23    1.79
   5   1  -5   -0.57    2.33
  -5  -1  -5    3.56    0.86
  -5   1   5    4.20    0.92
  -5  -1   5    5.29    0.94
   5   1   5    4.95    2.02
  -5  -1   5    8.01    2.26
  -5   1  -5    4.25    2.47
  -5  -1   5    3.52    0.96
  -5  -1   5    2.60    0.90
  -5  -1   5    4.81    1.07
  -5   1  -5    2.18    0.76
   5   1   5    3.51    0.85
  -5   1  -5    2.76    0.88
   5   1  -6    0.95    3.23
   5  -1   6   -0.33    2.42
  -5  -1  -6   -1.71    3.87
  -5   1   6    0.36    0.79
   5  -1   6    1.96    0.75
  -5   1   6    1.28    0.79
   5  -1   6    0.27    0.74
  -5  -1  -6    1.08    0.76
  -5  -1  -6    1.59    0.73
  -5   1   6    0.50    0.91
  -5   1   6    1.11    0.87
  -5   1   6   -0.12    2.55
  -5  -1   6   -2.40    2.47
  -5   1  -6    0.73    0.82
  -5  -1   6    0.19    0.96
  -5   1  -6    0.84    0.70
  -5  -1   6    0.75    0.90
  -5  -1   6    1.11    0.98
   5   1   6    0.82    0.81
  -5   1  -6   -4.84    3.19
   5  -1  -6    2.66    3.10
   5   1   6   -0.16    0.67
  -5   1   7    2.30    0.77
   5  -1   7    2.00    0.61
  -5   1   7    0.28    0.73
  -5   1   7    1.24    0.76
  -5   1   7    1.97    0.75
  -5  -1  -7    1.65    0.61
  -5  -1  -7    1.74    0.62
   5  -1   7    0.95    0.67
  -5  -1   7    1.06    0.76
  -5  -1   7    0.67    0.76
  -5   1  -7    1.63    0.67
  -5  -1   7    1.29    0.81
   5   1   7    2.18    0.60
   5   1   7    1.90    0.72
  -5   1  -7    0.59    0.61
   5  -1   8    0.09    0.41
  -5  -1  -8    0.62    0.39
  -5   1   8   -0.11    0.48
  -5  -1  -8    0.57    0.81
  -5   1   8   -0.11    0.54
   5  -1   8    0.32    0.50
  -5   1   8    0.64    0.51
  -5  -1   8    0.24    0.53
  -5  -1   8    0.54    0.56
  -5  -1   8    0.98    0.47
   5   1   8   -0.12    0.42
  -6   1   0   10.49    1.25
  -6  -1   0   11.48    1.34
  -6  -1   0   14.10    2.62
  -6   1   0   11.40    1.35
  -6   1   0   13.83    1.30
  -6   1   0   12.53    1.44
  -6   1   0   13.21    2.54
  -6  -1   0   10.81    1.37
  -6   1   0   10.67    1.26
  -6  -1   0   11.39    1.23
   6   1   0   13.63    2.12
  -6  -1   0   12.84    1.31
  -6   1   1   12.78    1.55
  -6   1   1   20.27    3.59
  -6   1   1   17.73    1.43
  -6  -1  -1   16.78    1.54
  -6   1   1   13.87    1.33
  -6  -1  -1   16.40    1.44
  -6  -1  -1   15.86    1.43
  -6  -1  -1   15.10    1.57
  -6   1   1   13.75    1.35
   6   1  -1   17.65    2.96
  -6  -1  -1   17.08    3.49
   6  -1   1   18.29    2.78
  -6  -1  -1   17.54    1.55
  -6   1  -1   15.61    1.38
  -6   1  -1   20.11    3.56
   6   1   1   16.89    2.64
  -6   1  -1   14.22    1.46
  -6  -1   1   18.99    3.77
   6  -1  -1   21.97    4.05
  -6  -1   1   17.48    1.41
  -6  -1   1   16.15    1.60
  -6   1  -1   16.51    1.48
  -6  -1   1   17.81    1.46
  -6  -1   1   17.11    1.43
  -6   1  -1   17.66    1.48
  -6   1  -1   17.75    1.58
   6   1   1   21.47    3.57
  -6   1   2    4.06    1.97
  -6   1   2    2.11    0.71
  -6  -1  -2    2.49    0.80
   6   1  -2    3.29    1.69
  -6   1   2    2.32    0.78
  -6   1   2    2.41    0.82
  -6   1   2    1.84    0.76
  -6  -1  -2    2.75    2.06
  -6   1   2    1.55    0.86
  -6  -1  -2    1.71    0.75
   6  -1   2    1.82    1.60
  -6  -1  -2    1.66    0.75
  -6  -1  -2    1.03    0.74
  -6   1  -2    1.08    0.76
  -6   1  -2    4.26    2.20
  -6   1  -2    0.44    0.74
  -6  -1   2    1.73    0.76
   6   1   2    1.65    1.39
   6  -1  -2    4.04    2.05
  -6  -1   2    1.95    1.59
  -6  -1   2    1.30    2.22
  -6   1  -2    1.55    0.78
  -6  -1   2    2.29    0.80
  -6   1  -2    0.89    0.79
  -6  -1   2    1.92    0.74
  -6  -1   2    2.21    0.94
  -6  -1   2    1.45    0.69
  -6   1   3    0.13    1.66
   6  -1   3    0.75    1.59
  -6   1   3    3.21    2.33
  -6   1   3   -0.28    0.76
  -6  -1  -3    0.62    0.75
  -6  -1  -3    0.22    0.76
  -6   1   3    0.29    0.75
  -6  -1  -3   -0.35    0.69
  -6  -1  -3    3.59    2.33
   6  -1   3    0.90    0.69
   6   1  -3    1.16    2.06
  -6   1   3   -1.29    0.75
  -6   1  -3   -0.02    0.69
  -6   1  -3    0.86    0.80
   6   1   3    0.98    1.66
  -6  -1   3   -0.33    0.79
  -6  -1   3   -0.15    0.75
  -6   1  -3   -0.97    0.77
  -6  -1   3    0.70    0.80
  -6  -1   3    0.31    1.69
  -6   1  -3   -0.72    2.01
  -6  -1   3   -1.43    2.40
  -6  -1   3   -0.76    0.76
   6  -1  -3    1.03    2.16
   6  -1   4    2.58    0.83
  -6   1   4    0.13    0.85
  -6   1   4    1.73    0.85
   6  -1   4   -2.30    1.97
  -6   1   4    0.68    0.71
  -6  -1  -4    3.09    3.72
  -6  -1  -4    0.66    0.81
  -6  -1  -4    1.03    0.76
  -6   1   4    2.16    2.05
  -6   1   4    2.39    0.92
   6   1  -4    2.38    2.39
  -6  -1   4    1.71    0.90
  -6  -1   4    0.44    0.81
   6   1   4    2.09    3.37
   6   1   4    1.76    0.87
  -6  -1   4    0.97    1.98
  -6  -1   4    1.10    0.99
  -6  -1   4    1.65    0.79
  -6   1  -4    2.62    3.24
  -6   1  -4    1.13    0.75
  -6   1  -4    0.24    0.74
   6  -1  -4    2.14    2.36
  -6   1   5    1.54    0.87
   6  -1   5   -2.53    2.45
  -6   1   5    0.76    2.42
  -6   1   5    2.03    0.80
  -6  -1  -5    1.04    0.83
   6  -1   5    0.75    0.73
   6   1  -5    0.93    3.03
  -6   1   5    0.84    0.78
  -6   1   5    0.93    0.91
  -6   1  -5    1.44    0.82
   6   1   5    0.92    0.77
  -6   1  -5    0.64    0.79
  -6  -1   5    0.72    0.90
  -6  -1   5    0.83    1.00
   6  -1  -5   -2.21    2.98
  -6  -1   5    0.62    0.88
  -6  -1   5   -0.46    2.43
   6   1   5    4.63    3.03
  -6  -1   5    2.44    0.93
  -6  -1  -6    1.49    0.67
  -6   1   6    3.17    0.86
   6  -1   6    1.74    0.70
  -6   1   6    3.39    0.78
   6  -1   6    2.65    0.75
  -6   1   6    1.91    0.88
  -6   1  -6    1.47    0.69
  -6  -1   6    2.49    0.90
  -6  -1   6    2.58    0.81
  -6   1  -6    3.60    0.76
  -6  -1   6    1.71    0.81
  -6  -1   6    2.56    0.92
   6   1   6    2.65    0.70
   6  -1   7   -0.05    0.47
  -6   1   7   -1.01    0.60
  -6   1   7    0.22    0.56
   6  -1   7    1.33    0.61
  -6  -1  -7    0.47    0.54
  -6   1   7    0.79    0.66
  -6  -1   7    0.70    0.65
  -6   1  -7   -0.10    0.48
  -6  -1   7    1.18    0.67
   6   1   7    0.24    0.53
  -6   1  -7    0.45    0.74
  -6  -1   7    0.10    0.55
  -6   1   8    1.48    0.44
  -6   1   8    1.26    0.39
  -6  -1   8    1.45    0.43
  -6  -1   8    1.59    0.35
  -6  -1   8    2.16    0.41
  -7  -1   0   -0.75    0.78
  -7   1   0    0.47    0.82
  -7   1   0   -0.70    0.73
  -7   1   0    0.45    0.77
  -7   1   0    0.32    0.76
  -7   1   0    1.25    2.40
   7  -1   0   -0.46    1.83
  -7  -1   0    0.68    0.81
  -7  -1   0    2.65    2.41
  -7  -1   0    0.08    0.81
  -7  -1   0    0.48    0.78
   7   1  -1    1.02    3.06
   7  -1   1    0.16    1.93
  -7  -1  -1    6.94    2.95
  -7   1   1    5.36    1.05
  -7  -1  -1    5.14    0.84
  -7  -1  -1    2.13    0.87
  -7  -1  -1    5.87    1.01
  -7   1   1    7.70    2.86
  -7   1   1    3.14    0.86
  -7   1   1    2.70    0.86
  -7  -1  -1    3.03    0.76
  -7   1   1    3.42    0.97
  -7  -1   1    1.80    2.63
  -7   1  -1    9.23    2.88
  -7   1  -1    3.08    0.95
  -7  -1   1    3.94    0.90
  -7  -1   1    3.41    0.90
  -7  -1   1    3.56    0.89
  -7   1  -1    4.79    0.97
  -7  -1   1    4.62    0.95
  -7   1  -1    4.91    0.86
  -7   1  -1    4.71    0.89
   7   1   1    7.35    1.87
  -7   1   2    5.16    0.95
  -7  -1  -2    4.36    0.88
  -7  -1  -2    4.94    0.79
  -7  -1  -2    3.76    0.91
   7  -1   2    4.76    2.12
  -7  -1  -2    5.55    2.68
  -7   1   2    4.28    0.89
  -7   1   2    4.12    0.96
  -7  -1  -2    4.31    0.89
  -7   1   2    5.72    1.05
  -7   1  -2    8.47    2.90
  -7   1  -2    4.73    0.87
  -7   1  -2    4.19    0.97
   7   1   2    3.48    2.17
  -7  -1   2    5.43    0.96
  -7   1  -2    4.32    0.93
  -7   1  -2    5.90    1.01
  -7  -1   2    6.16    1.03
  -7  -1   2    3.60    0.93
  -7  -1   2    5.04    0.99
   7   1  -3    1.67    3.68
  -7  -1  -3    1.58    0.73
  -7   1   3    1.32    0.78
  -7  -1  -3    2.25    0.85
  -7   1   3    3.13    0.95
  -7   1   3    1.20    0.87
  -7  -1  -3    2.56    0.74
  -7   1   3   -0.12    0.92
  -7   1   3    2.37    0.88
   7  -1   3    2.06    0.78
   7  -1   3    3.54    2.26
  -7  -1  -3    0.72    2.92
  -7   1  -3    1.39    0.88
  -7  -1   3    1.41    0.92
  -7   1  -3    4.83    3.17
  -7   1  -3    1.09    0.88
  -7  -1   3    2.25    0.86
  -7   1  -3    2.24    0.86
   7   1   3    5.97    2.32
   7  -1  -3    1.05    3.52
  -7   1  -3    1.36    0.70
  -7  -1   3    2.14    0.94
  -7  -1   3    2.79    0.97
  -7  -1   3    0.54    2.13
   7   1   3    1.90    0.87
  -7  -1   3    2.35    0.84
  -7   1   4    2.10    0.91
  -7   1   4    0.81    0.95
   7  -1   4    9.00    3.04
  -7   1   4    2.74    0.85
   7  -1   4    2.00    0.76
  -7  -1  -4    0.96    0.70
   7   1  -4    3.31    3.39
  -7   1   4    1.76    0.75
  -7  -1  -4    1.88    0.75
  -7  -1   4    1.73    0.79
   7   1   4    2.15    3.09
   7   1   4    1.65    0.81
  -7   1  -4    2.83    0.78
  -7  -1   4    1.89    2.57
  -7   1  -4    2.15    0.83
  -7  -1   4    2.61    0.95
  -7  -1   4    1.48    0.88
  -7   1  -4    3.95    5.57
  -7  -1   4    1.99    0.96
  -7  -1  -5    5.28    0.86
  -7   1   5    5.22    0.95
  -7   1   5    3.78    0.88
  -7   1   5    5.80    0.83
  -7   1   5    5.28    0.89
   7  -1   5    5.13    0.80
  -7  -1   5    6.16    0.95
  -7  -1   5    4.29    0.88
  -7  -1   5    5.24    1.05
  -7   1  -5    5.39    0.89
   7   1   5    4.49    0.70
  -7  -1   5    4.95    0.92
   7   1   5    2.92    0.80
  -7  -1  -6   -0.26    0.52
  -7   1   6   -0.90    0.57
  -7   1   6    0.39    0.66
   7  -1   6    0.81    0.49
  -7   1   6    1.44    0.68
   7  -1   6   -0.06    0.61
  -7  -1   6   -0.94    0.68
  -7  -1   6    0.26    0.72
  -7   1  -6   -0.52    0.53
   7   1   6   -0.27    0.56
  -7  -1   6   -0.66    0.64
  -7  -1   6    0.38    0.64
   7   1   6    0.07    0.69
  -7   1   7    0.48    0.44
  -7   1   7    0.06    0.45
  -7   1   7   -0.20    0.44
   7  -1   7    0.48    0.37
  -7  -1  -7    0.52    0.35
  -7  -1   7    0.13    0.42
  -7   1  -7    0.31    0.36
  -7  -1   7    0.36    0.40
   7   1   7    0.79    0.44
  -8  -1   0    8.09    1.18
  -8  -1   0   11.48    1.49
   8   1   0   10.13    2.83
  -8   1   0    9.65    1.45
  -8   1   0    7.50    1.14
  -8  -1   0    9.05    1.22
   8  -1   0    6.46    2.86
  -8  -1   0   10.91    3.31
  -8  -1   0    8.43    1.09
  -8   1   0   12.45    1.61
  -8   1   0    9.12    1.12
  -8   1   0   11.28    3.82
  -8   1   1   -0.50    0.80
  -8  -1  -1   -2.10    2.90
  -8  -1  -1    0.92    0.78
  -8  -1  -1   -0.01    0.75
  -8   1   1    1.68    0.93
  -8   1   1    0.40    0.90
  -8  -1  -1    1.93    0.77
  -8   1   1    0.35    0.80
  -8  -1  -1   -1.13    0.83
   8  -1   1    1.63    2.54
  -8   1   1    1.01    3.66
  -8   1  -1   -0.28    0.77
  -8  -1   1    0.81    0.81
  -8  -1   1    0.61    0.91
  -8   1  -1    5.86    3.27
  -8   1  -1   -0.12    0.73
  -8   1  -1    0.64    0.91
  -8  -1   1   -4.93    3.40
   8   1   1    2.18    2.59
  -8   1  -1    0.59    0.83
   8  -1  -1    1.48    2.70
  -8  -1   1    1.25    0.91
  -8  -1   1   -0.69    0.90
   8  -1   2   14.20    2.91
  -8  -1  -2    8.61    1.11
  -8  -1  -2   10.46    1.46
  -8   1   2   11.00    1.60
  -8  -1  -2   12.47    4.01
  -8   1   2    9.81    1.41
  -8   1   2    7.75    4.78
  -8   1   2    9.66    1.46
  -8  -1  -2    9.84    1.05
  -8  -1  -2    9.42    1.24
  -8   1   2    9.17    1.18
  -8  -1   2    3.87    4.71
  -8   1  -2    8.73    1.48
  -8   1  -2   10.75    1.29
  -8  -1   2    7.11    1.10
  -8  -1   2    9.18    1.26
  -8  -1   2    9.54    1.46
   8   1   2    7.93    3.09
  -8   1  -2   10.49    1.36
  -8   1  -2    7.13    3.44
  -8   1  -2   11.98    1.52
  -8  -1   2    8.83    1.42
  -8  -1  -3    0.34    1.05
  -8   1   3    0.17    0.85
  -8   1   3    0.73    0.86
   8  -1   3    0.25    1.08
  -8   1   3   -0.99    0.82
  -8  -1   3   -1.21    0.85
  -8   1  -3    0.16    0.61
  -8   1  -3    1.05    0.87
  -8  -1   3    0.94    0.83
  -8  -1   3   -0.13    0.82
   8   1   3    0.22    0.69
  -8   1  -3    0.25    0.86
  -8  -1  -4    5.71    0.83
   8  -1   4    5.93    0.83
  -8   1   4    4.81    0.84
  -8   1   4    5.47    0.92
  -8   1   4    6.53    0.90
  -8  -1  -4    6.68    0.83
   8   1   4    4.26    0.77
  -8   1  -4    5.75    0.86
  -8  -1   4    4.84    0.91
  -8   1  -4    5.63    0.95
  -8  -1   4    5.39    0.90
  -8  -1   4    5.69    1.04
   8  -1   5   -0.80    0.48
  -8   1   5    0.40    0.61
  -8   1   5    0.39    0.62
   8  -1   5   -0.22    0.61
  -8   1   5    0.40    0.58
  -8  -1  -5    0.82    0.52
   8   1   5    0.35    0.54
  -8  -1   5   -0.98    0.60
  -8  -1   5    0.11    0.56
  -8   1  -5    0.02    0.51
   8   1   5    0.14    0.45
  -8  -1   5    0.06    0.67
  -8   1   6    0.28    0.39
  -8  -1  -6    0.33    0.46
   8  -1   6   -0.12    0.34
  -8   1   6    0.37    0.43
  -8  -1   6   -0.38    0.63
  -8  -1   6    0.69    0.45
   8   1   6    0.09    0.40
  -8   1  -6    0.45    0.36
  -9   1   0   -0.05    0.71
  -9  -1   0   -0.22    0.68
  -9   1   0   -0.62    0.64
  -9   1   0    0.22    0.76
  -9  -1   0   -0.14    0.74
  -9  -1   0    0.53    0.72
  -9   1   1    2.71    0.78
  -9  -1  -1    2.97    0.78
  -9  -1  -1    2.41    0.65
  -9   1   1    3.01    0.81
  -9  -1  -1    3.69    0.83
  -9   1   1    3.55    0.82
  -9  -1   1    1.80    0.76
  -9   1  -1    2.75    0.77
  -9  -1   1    2.98    0.83
  -9   1  -1    3.65    0.83
  -9  -1   1    2.14    0.73
  -9   1  -1    1.28    0.67
  -9   1  -1    2.92    0.77
   9  -1   2    0.22    0.72
  -9   1   2    0.81    0.65
  -9  -1  -2    1.56    0.67
  -9  -1  -2    0.50    0.54
  -9  -1  -2    0.85    0.67
  -9   1   2    2.13    0.80
  -9   1   2    0.39    0.67
  -9   1   2    0.17    0.73
  -9  -1  -2    0.97    0.58
  -9  -1   2    0.15    0.77
  -9   1  -2    1.68    0.60
  -9  -1   2    1.84    0.80
  -9   1  -2    1.21    0.71
  -9  -1   2    0.75    0.64
  -9   1  -2    0.52    0.62
  -9  -1   2    1.74    0.66
  -9   1  -2    1.97    0.72
   9   1   2    0.17    0.63
  -9  -1  -3    1.17    0.50
   9  -1   3    1.10    0.67
  -9   1   3   -0.17    0.57
  -9  -1  -3    1.50    0.70
  -9   1   3    0.57    0.65
  -9   1   3    0.18    0.67
  -9  -1   3   -0.37    0.57
  -9  -1   3    2.32    0.74
  -9  -1   3    0.31    0.71
  -9   1  -3   -0.04    0.81
  -9   1  -3    0.56    0.52
   9   1   3   -0.42    0.65
  -9   1  -3    1.28    0.66
  -9  -1  -4    0.19    0.41
  -9  -1  -4   -0.19    0.46
  -9   1   4    1.52    0.54
  -9   1   4   -0.52    0.47
   9  -1   4   -0.79    0.56
  -9   1   4    1.10    0.55
  -9  -1   4   -0.13    0.55
   9   1   4   -0.71    0.50
  -9  -1   4   -0.15    0.49
  -9  -1   4   -0.22    0.50
   9   1   4    0.52    0.42
  -9   1  -4   -0.06    0.49
  -9   1  -4    0.09    0.43
  -9   1   5    2.07    0.43
   9  -1   5    1.06    0.36
  -9  -1  -5    1.14    0.34
  -9   1   5    1.62    0.44
  -9  -1   5    1.26    0.43
  -9   1  -5    1.21    0.36
  -9  -1   5    1.75    0.42
   9   1   5    1.76    0.42
 -10  -1   0    0.59    0.47
 -10  -1   0    0.21    0.46
 -10   1   0    1.12    0.47
 -10  -1   0    0.56    0.49
 -10   1   0    0.61    0.47
 -10   1   0    0.74    0.43
 -10  -1  -1    1.27    0.51
 -10  -1  -1    0.68    0.39
 -10  -1  -1    0.37    0.69
 -10   1   1    1.00    0.54
 -10   1   1    1.25    0.49
  10  -1   1   -0.58    0.60
 -10   1   1    1.91    0.60
 -10   1  -1    2.09    0.49
 -10   1  -1    1.13    0.48
  10   1   1    2.00    0.56
 -10  -1   1    0.41    0.46
 -10   1  -1    1.33    0.52
 -10  -1   1    0.87    0.45
 -10  -1   1    1.23    0.64
 -10  -1  -2    0.76    0.50
 -10   1   2    0.09    0.41
 -10   1   2    0.84    0.45
  10  -1   2    0.45    0.60
 -10  -1   2   -0.24    0.41
 -10   1  -2    0.43    0.50
 -10  -1   2    0.48    0.68
 -10   1  -2    0.37    0.44
 -10  -1  -3   -0.23    0.37
 -10   1   3   -0.20    0.28
 -10   1   3   -0.51    0.39
  10   1   3   -0.71    0.37
 -10   1  -3    0.38    0.38
 -10  -1   3    0.51    0.35
 -10  -1   3   -0.92    0.41
   0   2   0  834.05   39.66
   0  -2   0  861.13   39.53
   0  -2   0  922.69   40.00
   0   2   0  888.63   39.68
   0   2   1   -0.20    0.42
   0   2  -1    0.26    0.30
   0   2   1   -0.04    0.17
   0  -2  -1   -0.06    0.41
   0   2  -1    0.06    0.83
   0  -2  -1    0.15    0.66
   0   2  -1    0.84    0.37
   0   2   1    0.57    0.59
   0   2   1    0.14    0.32
   0  -2   1    0.22    0.90
   0  -2   1   -0.14    0.31
   0  -2   2   42.61    2.37
   0   2  -2   43.47    2.68
   0  -2  -2   41.09    3.43
   0  -2  -2   47.04    2.44
   0   2   2   43.13    3.12
   0  -2   2   43.60    2.37
   0  -2   2   42.82    3.92
   0   2   2   39.17    2.53
   0   2  -2   43.17    3.69
   0   2   2   40.78    2.18
   0   2   3    0.38    2.43
   0  -2   3    4.73    2.68
   0   2   3    0.14    0.79
   0   2  -3   -0.23    0.93
   0  -2   3    0.48    0.76
   0  -2   3   -2.74    2.54
   0  -2  -3   -0.87    0.74
   0   2   3   -0.08    0.55
   0  -2   3    0.16    0.70
   0  -2  -3   -0.66    2.43
   0   2  -4  448.58   20.26
   0   2   4  414.68   19.47
   0   2   4  421.10   19.84
   0  -2   4  378.70   20.56
   0  -2   4  435.51   24.52
   0   2   5   -1.08    1.44
   0  -2  -5   -0.86    1.79
   0   2   5   -0.80    0.65
   0   2   5   -0.68    0.62
   0  -2   5    2.31    1.36
   0  -2   5    0.18    0.80
   0   2   5   -1.19    1.15
   0  -2   5    0.05    0.68
   0   2   5   -1.71    0.78
   0  -2   5   -0.15    1.34
   0  -2   6   21.13    2.03
   0  -2  -6   32.44    4.14
   0  -2   6   21.35    1.85
   0  -2   6   25.27    2.27
   0   2   6   21.38    1.92
   0   2   6   23.71    1.81
   0   2   6   23.22    1.73
   0   2   6   25.07    2.11
   0   2  -6   27.47    4.24
   0   2   6   22.81    3.43
   0  -2   6   21.36    3.39
   0   2   6   25.48    3.89
   0   2   7    0.15    3.70
   0   2   7    1.03    0.85
   0   2   7   -0.53    0.71
   0   2   7   -0.81    0.77
   0  -2   7   -0.32    1.00
   0  -2  -7   -0.68    2.50
   0  -2   7   -0.12    0.87
   0   2  -7    0.21    0.69
   0   2   7    0.20    0.95
   0  -2   7   -0.97    0.77
   0  -2   7   -0.48    2.15
   0  -2   7    0.09    0.93
   0   2  -8   35.28    2.17
   0   2   8   40.78    2.26
   0   2   8   40.23    2.23
   0  -2   8   39.54    2.33
   0   2   8   37.81    2.51
   0  -2   8   36.96    2.36
   0  -2   9    0.80    0.90
   0  -2  -9   -0.12    0.51
   0   2  -9    0.14    0.52
   0   2   9    0.64    0.60
   0   2   9   -0.94    0.53
   0  -2   9   -0.12    0.45
   1   2   0    0.24    0.25
  -1   2   0   -0.05    0.26
  -1  -2   0    0.03    0.21
   1   2   0    0.90    0.80
   1  -2   0    0.25    0.60
  -1  -2   0   -0.06    0.73
  -1   2   0    0.73    0.58
  -1   2   0    0.58    0.47
  -1  -2  -1  776.62   36.05
  -1   2   1  867.07   35.77
   1   2  -1  760.87   36.45
   1   2  -1  787.38   35.80
  -1   2   1  777.42   35.73
  -1   2   1  770.78   35.98
  -1   2   1  811.26   35.89
  -1  -2  -1  810.04   36.53
   1  -2   1  861.90   36.77
   1   2  -1  744.93   35.85
   1  -2   1  769.38   35.89
  -1  -2   1  832.89   36.52
  -1  -2   1  774.00   35.87
   1   2   1  797.37   36.45
   1   2   1  750.92   35.72
  -1   2  -1  747.34   35.63
   1   2   1  799.00   35.96
  -1   2  -1  779.04   35.96
   1  -2  -1  793.92   35.81
  -1   2  -1  795.14   35.97
   1   2  -2   86.25    5.29
  -1  -2  -2   73.67    4.37
   1  -2   2   92.45    6.22
  -1  -2  -2   81.81    5.68
   1   2  -2   81.08    4.33
  -1   2   2   83.88    4.28
  -1   2   2   86.87    4.36
   1  -2   2   80.42    4.26
  -1   2   2   84.90    4.07
  -1   2   2   81.93    4.33
   1   2   2   80.83    4.32
   1   2   2   80.93    5.34
  -1   2  -2   85.85    4.57
  -1  -2   2   87.18    4.21
  -1   2  -2   87.97    4.30
  -1  -2   2   80.02    4.37
  -1  -2   2   91.52    5.30
   1   2   2   84.56    4.10
   1  -2   3  665.96   32.12
  -1   2   3  622.09   30.86
   1  -2   3  677.08   30.27
  -1   2   3  625.11   30.77
   1  -2   3  646.82   33.04
  -1   2   3  630.37   29.99
  -1   2   3  667.46   30.36
   1   2  -3  690.93   32.00
  -1  -2  -3  736.14   32.26
   1   2  -3  650.92   30.47
   1   2   3  661.36   30.30
   1   2   3  583.82   31.73
  -1  -2   3  655.74   30.16
   1   2   3  679.58   30.07
  -1   2  -3  666.91   30.64
  -1  -2   3  634.48   31.54
   1  -2  -3  687.98   29.92
   1   2  -4   21.76    2.87
  -1   2   4   18.81    1.86
  -1  -2  -4   15.19    2.89
   1  -2   4   24.23    8.58
   1  -2   4   21.16    2.09
  -1   2   4   21.12    2.48
  -1   2  -4   21.20    2.83
  -1  -2   4   23.40    2.15
   1   2   4   20.43    2.41
   1  -2  -4   13.57    2.71
   1   2   4   20.15    2.10
  -1   2   5  374.19   17.70
   1  -2   5  361.47   17.17
  -1   2   5  374.71   17.19
   1   2  -5  420.95   18.65
  -1   2   5  374.01   17.21
   1  -2   5  369.02   17.99
  -1   2   5  365.08   17.18
  -1   2   5  375.04   18.25
   1  -2   5  354.63   17.18
   1  -2   5  343.40   17.21
  -1  -2  -5  380.13   18.80
  -1   2   5  363.45   17.23
  -1   2   5  374.26   17.21
  -1  -2   5  370.58   17.17
   1   2   5  394.31   18.13
  -1  -2   5  363.86   17.17
  -1  -2   5  362.56   17.31
  -1   2  -5  420.06   18.70
   1   2   5  359.61   17.18
   1   2   5  387.58   17.20
   1   2   5  380.27   17.78
  -1  -2   5  396.11   18.01
   1   2   5  368.81   17.17
   1   2   5  376.41   17.20
  -1  -2   5  360.18   17.27
  -1   2   6    5.27    0.99
  -1   2   6    1.02    1.89
   1  -2   6    5.08    2.02
   1  -2   6    6.11    1.03
  -1   2   6    5.74    2.22
  -1   2   6    8.35    1.33
  -1  -2  -6   10.06    1.28
  -1  -2  -6    4.86    2.32
   1   2  -6    5.09    2.55
  -1   2   6    4.98    1.61
  -1   2   6    7.51    0.98
  -1   2   6    5.00    1.01
  -1  -2   6    3.96    1.10
   1   2   6    5.32    0.94
   1  -2  -6    4.37    4.89
   1   2   6    2.11    1.94
   1   2   6    5.84    0.95
  -1   2  -6    7.58    2.16
  -1  -2   6    7.09    2.08
  -1  -2   6    7.56    1.88
   1   2   6    6.13    1.17
  -1  -2   6    7.39    1.10
   1   2   6    8.29    2.20
  -1  -2   6    6.23    1.19
   1   2  -7   86.18    8.45
   1  -2   7   90.15    4.39
   1  -2   7   85.12    4.38
  -1  -2  -7   95.47    7.17
  -1   2   7   77.33    7.13
   1   2  -7   88.05    4.34
  -1   2   7   81.41    4.31
   1  -2   7   79.83    6.10
  -1   2   7   90.90    4.48
  -1   2   7   86.23    4.38
  -1   2   7   87.56    4.47
   1  -2  -7   80.20    7.75
   1   2   7   85.34    4.43
  -1  -2   7   84.99    4.43
  -1   2  -7   81.91    6.80
   1   2   7   88.38    4.34
   1   2   7   92.21    8.89
  -1  -2   7   90.97    4.48
   1   2   7   85.10    4.38
  -1  -2   7   89.80    4.48
  -1  -2   7   85.34    4.44
  -1   2  -7   83.01    4.30
  -1   2   8    4.31    0.77
   1  -2   8    4.22    0.85
   1   2  -8    3.89    0.84
  -1   2   8    3.55    0.82
   1  -2   8    3.68    0.80
  -1   2   8    4.54    0.90
   1   2   8    4.12    0.98
   1   2   8    4.53    0.77
  -1   2  -8    2.70    0.69
  -1  -2   8    5.70    0.91
   1   2   8    5.17    0.80
  -1  -2   8    6.40    0.97
  -1  -2   8    5.07    0.89
   1  -2   9   62.93    2.99
   1   2  -9   61.65    3.27
  -1   2   9   61.30    3.06
   1  -2   9   57.90    3.00
  -1   2   9   60.14    3.02
  -1   2   9   64.45    3.02
  -1  -2  -9   63.11    3.01
   1   2   9   63.18    3.05
  -1   2  -9   56.65    2.95
  -1   2  -9   62.02    3.00
  -1  -2   9   65.10    3.22
   1  -2  -9   62.98    3.04
  -1  -2   9   62.46    3.01
  -2   2   0  101.95    5.32
  -2  -2   0  109.24    4.98
   2  -2   0   98.19    5.49
  -2   2   0  105.66    5.10
  -2  -2   0  119.37    5.97
   2   2   0  106.86    5.13
   2  -2   0   95.81    5.51
   2   2   0  101.71    5.81
   2   2  -1  160.28    8.30
  -2   2   1  159.15    7.43
   2   2  -1  157.03    7.20
  -2   2   1  158.14    7.42
   2  -2   1  147.95    8.42
   2  -2   1  155.05    7.51
   2   2  -1  151.59    7.47
  -2   2   1  152.29    7.33
  -2   2   1  148.03    7.57
  -2  -2  -1  169.44    8.65
   2  -2   1  157.18    8.86
   2   2   1  149.91    7.49
   2   2   1  156.38    8.41
  -2   2  -1  156.96    7.57
  -2   2  -1  157.07    7.71
  -2  -2   1  157.66    7.36
  -2  -2   1  172.53    8.35
  -2   2   2  168.23    8.06
  -2  -2  -2  143.26    8.30
  -2   2   2  171.20    8.13
   2  -2   2  156.74    9.62
  -2  -2  -2  183.46   10.18
  -2   2   2  170.92    7.94
   2  -2   2  174.99    8.16
   2  -2   2  172.25   10.75
   2   2  -2  172.63    9.22
  -2   2   2  168.73    8.04
  -2  -2   2  141.12    8.30
   2   2   2  174.66    8.16
   2   2   2  168.87    7.97
   2   2   2  139.47    9.31
  -2  -2   2  179.73    8.03
  -2  -2   2  180.69    9.25
  -2   2  -2  175.23    8.27
  -2   2  -2  176.80    8.39
   2   2  -3   42.41    2.82
  -2   2   3   38.61    2.72
   2  -2   3   43.52    8.18
   2   2  -3   39.25    5.33
  -2  -2  -3   49.47    7.39
   2  -2   3   47.07    6.56
  -2  -2  -3   36.10    2.91
   2  -2   3   42.84    2.70
  -2   2   3   41.72    2.44
   2   2   3   42.90    6.21
   2   2   3   40.67    2.74
  -2   2  -3   36.98    2.74
  -2  -2   3   34.43    2.80
  -2  -2   3   41.49    2.57
   2   2   3   37.88    2.50
  -2   2  -3   40.95    3.17
  -2  -2   3   38.67    6.94
  -2  -2  -4  274.06   14.53
  -2  -2  -4  295.63   13.87
   2   2  -4  311.02   14.30
  -2   2   4  279.78   14.09
  -2   2   4  277.60   13.69
   2  -2   4  300.47   14.00
  -2  -2   4  273.81   13.81
  -2   2  -4  309.04   14.54
   2   2   4  285.51   13.80
  -2   2   5   13.55    1.35
  -2   2   5   12.54    2.24
  -2  -2  -5   12.00    2.55
   2  -2   5    9.30    1.23
   2  -2   5   12.57    2.26
  -2   2   5   11.79    2.13
   2  -2   5   15.17    1.59
   2  -2   5   11.09    1.32
  -2   2   5   13.75    1.37
   2   2  -5    9.38    2.43
  -2   2   5   13.09    1.43
  -2  -2  -5   12.74    1.24
  -2   2   5   12.81    1.41
  -2   2   5   13.81    1.46
  -2  -2   5   12.48    1.96
   2   2   5    8.88    1.48
   2   2   5   12.49    1.58
   2   2   5   11.39    1.29
   2  -2  -5    8.98    2.30
  -2  -2   5    9.96    1.26
  -2   2  -5   13.53    1.50
  -2   2  -5    8.22    2.17
  -2  -2   5   13.50    1.38
   2   2   5   10.58    1.69
  -2  -2   5   13.55    1.33
  -2  -2   5   13.66    1.68
  -2  -2   5   12.17    1.51
   2   2   5    9.03    1.93
   2   2   5   11.89    1.36
  -2   2   6  184.52    8.52
  -2   2   6  175.77    8.56
   2  -2   6  175.57    9.58
  -2   2   6  175.25   10.23
   2  -2   6  178.99    8.45
  -2  -2  -6  202.88   10.74
   2  -2   6  178.35    8.49
   2   2  -6  170.27   10.93
  -2   2   6  172.71    9.41
  -2   2   6  178.67    8.49
  -2   2   6  180.86    8.44
  -2  -2  -6  174.79    8.34
  -2   2   6  177.66    8.43
  -2  -2   6  173.08    9.60
  -2  -2   6  177.06    8.48
  -2   2  -6  185.77    8.46
   2   2   6  183.79    8.49
  -2  -2   6  189.20    8.61
  -2  -2   6  183.71    8.50
  -2  -2   6  179.23    8.61
  -2   2  -6  186.55   10.44
   2   2   6  160.29    9.46
   2   2   6  183.79    8.46
   2   2   6  174.27    9.80
   2   2   6  171.68    8.45
   2  -2  -6  181.08   10.88
  -2   2   7    0.23    0.95
   2  -2   7    0.60    0.84
   2   2  -7    1.14    0.87
   2   2  -7   -1.56    2.99
  -2   2   7    0.82    0.99
   2  -2   7   -2.27    2.24
  -2   2   7    0.11    0.79
  -2  -2  -7   -0.10    0.71
  -2  -2  -7    1.31    2.56
  -2   2   7    0.30    0.81
   2  -2   7    0.01    0.78
  -2   2  -7    4.17    2.70
   2  -2  -7    0.47    4.06
  -2   2  -7   -0.42    0.85
   2   2   7   -0.03    0.87
  -2  -2   7    0.44    0.98
   2   2   7   -4.74    5.41
  -2  -2   7   -2.34    2.32
   2   2   7    0.63    0.83
  -2  -2   7   -0.03    0.90
  -2  -2   7    1.45    0.91
  -2  -2   7    0.00    0.93
   2   2   7    0.88    0.82
  -2   2   8   70.36    3.81
  -2   2   8   73.92    3.73
   2  -2   8   70.33    3.70
  -2   2   8   78.32    3.80
   2  -2   8   72.75    3.68
  -2  -2   8   77.87    3.77
   2   2   8   71.29    3.73
  -2   2  -8   73.22    3.68
   2   2   8   75.24    3.68
  -2  -2   8   72.87    3.76
  -2  -2   8   72.56    3.76
   2   2   8   76.10    3.72
   2  -2   9    1.68    0.65
  -2   2   9    1.25    0.50
  -2  -2  -9    1.16    0.43
   2  -2   9    1.28    0.45
  -2   2   9    1.32    0.53
  -2   2   9    1.33    0.46
  -2  -2   9    1.41    0.48
  -2  -2   9    0.36    0.50
   2   2   9    2.14    0.48
  -2   2  -9    2.37    0.51
   3  -2   0    0.43    0.47
  -3   2   0   -0.07    0.49
   3   2   0    0.75    0.60
  -3   2   0    0.83    0.86
  -3  -2   0   -0.18    0.51
   3  -2   0   -1.30    2.10
  -3  -2   0    1.09    1.83
  -3  -2   0    0.16    0.92
   3   2   0    0.07    1.58
  -3  -2  -1  120.72    7.26
  -3   2   1  144.01    7.15
  -3  -2  -1  147.28    8.64
  -3   2   1  143.39    6.77
   3  -2   1  143.16    6.90
   3  -2   1  121.42    9.72
   3   2  -1  144.63    6.90
   3  -2   1  135.05    8.25
  -3   2   1  143.79    6.74
  -3  -2  -1  128.17    7.48
   3   2  -1  144.14    8.13
  -3   2  -1  144.94    6.95
   3   2   1  136.09    8.20
  -3  -2   1  120.25    7.32
  -3  -2   1  149.42    8.02
  -3  -2   1  147.37    6.76
  -3   2  -1  141.74    7.33
   3   2   1  153.71    6.93
   3   2  -2   91.76    7.06
   3   2  -2  100.36    5.20
  -3   2   2  101.34    4.96
  -3  -2  -2  106.36    8.50
  -3  -2  -2   96.62    5.34
   3  -2   2   86.98    7.77
  -3  -2  -2   89.66    5.52
   3  -2   2  103.54    5.17
  -3   2   2  103.40    5.09
  -3   2   2   93.13    4.96
  -3   2   2  102.29    5.17
   3  -2   2   74.19   10.08
  -3  -2   2  100.67    4.97
   3   2   2   99.96    4.97
  -3   2  -2   99.50    5.40
   3   2   2  100.75    5.15
  -3  -2   2   83.81    5.49
  -3  -2   2   97.36    6.60
  -3   2  -2  100.55    5.49
   3   2   2   92.04    7.45
  -3  -2  -3  299.40   14.39
  -3   2   3  283.36   13.76
  -3  -2  -3  299.90   14.27
  -3   2   3  292.63   13.79
   3  -2   3  290.36   18.07
  -3   2   3  301.28   14.06
   3   2  -3  269.05   13.67
  -3  -2   3  267.79   14.03
  -3   2  -3  308.10   14.19
   3   2   3  294.72   13.81
  -3   2  -3  313.38   14.44
   3   2   3  289.11   13.94
  -3  -2  -4    4.33    0.69
  -3   2   4    2.94    1.09
  -3   2   4    2.96    1.54
  -3   2   4    3.55    0.85
  -3  -2  -4    3.90    1.66
   3   2  -4    5.13    1.86
  -3   2   4    5.20    0.78
  -3  -2  -4    4.32    1.67
   3  -2   4    3.04    1.30
  -3   2   4    4.79    0.95
  -3  -2   4    3.22    1.39
  -3   2  -4    1.67    1.55
  -3  -2   4    3.56    0.94
  -3  -2   4    2.52    0.89
  -3  -2   4    3.96    0.79
  -3  -2   4    4.35    0.78
   3   2   4    2.97    0.90
  -3   2  -4    1.84    1.45
   3   2   4    5.86    1.25
   3  -2  -4    1.20    1.96
  -3   2  -4    4.26    0.89
  -3   2  -4    2.71    0.82
   3   2   4    3.21    1.34
  -3  -2   4    4.66    0.77
   3   2   4    3.32    0.73
   3  -2   5  292.82   14.28
   3  -2   5  286.17   13.38
  -3   2   5  293.93   13.45
  -3   2   5  280.84   13.40
  -3   2   5  280.73   13.35
   3  -2   5  296.87   13.38
  -3   2   5  281.48   13.76
  -3   2   5  286.49   13.38
  -3  -2  -5  296.97   13.32
  -3   2   5  296.35   14.12
  -3  -2  -5  333.52   15.20
  -3   2   5  287.73   14.65
   3   2   5  293.90   14.06
  -3  -2   5  281.03   14.24
  -3  -2   5  285.55   13.37
  -3   2  -5  301.05   14.95
  -3   2  -5  290.56   13.32
  -3  -2   5  302.74   13.50
  -3   2  -5  300.57   13.39
   3   2   5  265.48   13.37
  -3  -2   5  306.85   13.54
   3   2   5  275.88   14.19
  -3  -2   5  289.77   13.37
   3   2   5  283.55   13.37
   3  -2  -5  248.15   15.27
  -3  -2   5  290.97   13.36
  -3  -2  -6   10.36    2.53
   3  -2   6    9.47    1.14
  -3   2   6    8.53    1.35
  -3   2   6    6.82    1.02
   3   2  -6    8.46    2.75
   3  -2   6    7.81    2.00
  -3  -2  -6    7.66    1.15
  -3   2   6    8.87    1.18
  -3   2   6    7.28    1.17
   3  -2   6    6.73    1.00
  -3   2   6    9.15    1.34
  -3  -2   6    9.50    1.32
   3   2   6    9.16    1.52
  -3  -2   6    9.93    2.15
  -3   2  -6    6.52    2.32
  -3  -2   6   10.06    1.48
  -3  -2   6    7.40    1.07
  -3  -2   6    8.61    1.17
   3   2   6    8.29    1.08
   3   2   6   12.11    3.68
  -3   2  -6    9.68    1.04
  -3   2  -6    6.72    1.05
   3  -2  -6   11.76    4.82
  -3  -2  -7   89.86    4.23
   3   2  -7   80.34    7.42
  -3   2   7   84.98    4.33
   3  -2   7   82.56    6.41
   3  -2   7   87.90    4.33
  -3   2   7   85.41    4.52
   3  -2   7   87.74    4.35
  -3   2   7   89.03    4.47
  -3   2   7   87.62    4.44
  -3  -2   7   84.89    6.25
  -3   2  -7   84.26    7.08
  -3  -2   7   90.22    4.54
  -3   2  -7   88.67    4.34
   3   2   7   84.67    4.36
  -3  -2   7   85.73    4.43
  -3  -2   7   89.00    4.44
  -3   2   8   19.82    1.60
   3  -2   8   18.90    1.42
  -3   2   8   19.18    1.51
   3  -2   8   17.68    1.41
  -3   2   8   24.47    1.84
  -3   2   8   18.88    1.56
   3   2   8   19.00    1.49
  -3  -2   8   19.20    1.53
  -3   2  -8   19.25    1.43
  -3  -2   8   18.25    1.54
  -3  -2   8   20.80    1.53
   3  -2   9   39.61    1.99
  -3   2   9   43.04    2.08
  -3  -2  -9   43.17    2.09
  -3   2   9   39.88    2.08
  -3  -2   9   39.93    2.07
  -3  -2   9   41.99    2.09
  -3   2  -9   39.46    2.04
   3   2   9   40.98    2.09
  -3  -2   9   41.87    2.04
  -4  -2   0  372.77   18.03
  -4  -2   0  359.75   19.32
   4  -2   0  364.92   17.02
   4   2   0  382.28   17.34
  -4  -2   0  389.13   17.24
  -4   2   0  366.79   17.91
  -4   2   0  368.70   17.19
   4   2   0  353.90   19.09
   4  -2   1   42.37    2.79
  -4   2   1   43.75    2.71
   4   2  -1   41.00    2.84
  -4   2   1   39.39    2.56
  -4  -2  -1   49.69    7.54
  -4  -2  -1   39.34    3.56
  -4   2   1   40.94    3.40
   4   2   1   44.60    2.91
   4   2   1   48.50    6.63
  -4   2  -1   42.46    3.61
  -4  -2   1   43.07    2.65
  -4  -2   1   43.05    3.62
  -4   2  -1   42.84    2.86
  -4   2   2  383.02   17.51
  -4  -2  -2  384.74   17.97
  -4   2   2  360.37   17.49
   4   2  -2  366.46   17.40
   4  -2   2  386.85   17.41
  -4  -2  -2  378.01   17.34
  -4  -2  -2  340.79   21.61
  -4   2  -2  396.55   17.86
   4   2   2  378.54   17.33
   4   2   2  326.80   20.43
  -4  -2   2  332.91   17.51
   4   2   2  369.90   17.19
  -4  -2   2  345.80   17.82
  -4   2  -2  366.27   17.52
  -4  -2  -3   39.63    3.54
   4  -2   3   31.93    2.89
  -4   2   3   32.32    1.96
  -4   2   3   32.85    2.60
  -4   2   3   31.03    2.21
   4   2  -3   34.68    2.99
  -4  -2  -3   32.75    3.18
  -4   2   3   29.40    2.78
  -4  -2  -3   33.61    1.95
   4   2   3   36.38    2.58
  -4  -2   3   36.05    3.39
  -4   2  -3   33.64    2.08
  -4  -2   3   32.29    2.04
  -4  -2   3   33.52    2.81
  -4   2  -3   36.25    3.31
  -4  -2   3   30.31    1.97
  -4   2  -3   32.74    3.27
  -4  -2   3   34.89    2.00
  -4  -2   3   36.18    2.07
  -4   2  -3   34.42    2.04
   4   2  -4  189.26    9.98
  -4   2   4  191.44    8.74
   4  -2   4  192.67    9.70
  -4  -2  -4  210.45   10.13
  -4   2   4  188.80    9.22
  -4   2   4  175.14    9.63
  -4  -2  -4  203.69   10.21
  -4   2   4  181.82    8.78
  -4  -2  -4  189.71    8.70
  -4   2   4  173.19    8.70
   4  -2   4  173.26    8.74
  -4  -2   4  187.49    8.84
  -4   2  -4  186.95    8.72
  -4  -2   4  181.83    9.52
  -4  -2   4  185.98    8.80
   4   2   4  178.86    9.37
  -4  -2   4  187.22    8.76
   4   2   4  177.94    8.73
  -4  -2   4  186.65    8.73
   4   2   4  174.68    9.62
  -4   2  -4  185.84    8.75
  -4  -2   4  191.24    8.74
  -4   2  -4  194.36   10.46
  -4   2  -4  192.00   10.09
  -4   2  -4  193.11    8.76
  -4   2   5    8.33    1.20
  -4  -2  -5    7.57    1.20
  -4   2   5    9.80    1.43
  -4   2   5    9.19    1.48
   4  -2   5   10.75    1.39
  -4   2   5   10.13    1.35
  -4   2   5    8.12    1.92
   4  -2   5    8.42    1.96
   4   2  -5    5.75    2.19
  -4  -2  -5    5.80    2.02
  -4  -2   5   11.12    1.49
   4   2   5    8.62    1.38
  -4  -2   5    9.24    1.31
   4   2   5    8.92    1.53
  -4   2  -5   10.21    1.38
  -4  -2   5    9.95    1.57
  -4  -2   5    9.89    1.39
  -4   2  -5    9.95    1.28
  -4  -2   5    6.01    1.99
  -4  -2   5    8.20    1.13
  -4   2  -5    4.42    2.00
   4  -2   6   80.10    3.81
   4  -2   6   70.34    5.39
  -4   2   6   69.74    5.71
   4  -2   6   72.29    3.78
  -4  -2  -6   64.62    6.16
  -4   2   6   76.64    3.87
  -4   2   6   69.44    3.84
  -4   2   6   70.40    3.77
  -4  -2  -6   79.12    3.70
   4   2  -6   80.81    7.62
  -4   2   6   73.34    3.95
  -4   2  -6   74.20    3.70
  -4  -2   6   57.02    5.39
  -4   2  -6   74.11    3.80
  -4  -2   6   73.17    3.91
  -4  -2   6   74.78    4.03
  -4  -2   6   74.23    3.85
  -4  -2   6   71.68    3.75
   4   2   6   74.18    3.82
  -4   2  -6   79.52    6.41
   4  -2   7    1.33    0.78
  -4   2   7    1.99    0.73
  -4  -2  -7    2.46    0.68
  -4   2   7    0.37    1.64
  -4  -2  -7    0.36    0.86
   4   2   7    1.72    1.12
  -4   2  -7    0.71    0.67
   4  -2   8   31.28    1.74
  -4   2   8   31.95    1.90
  -4   2   8   32.45    1.92
  -4   2   8   31.65    2.00
  -4  -2  -8   29.70    1.71
  -4  -2  -8   28.74    1.92
  -4  -2   8   32.51    1.92
  -4  -2   8   29.50    1.86
  -4   2  -8   33.52    1.78
   4   2   8   29.67    1.79
  -4  -2   8   32.10    1.83
  -4   2   9    0.44    0.33
  -4   2   9    0.06    0.26
   4   2  -9    0.14    0.30
  -4  -2   9    0.05    0.37
   4   2   9    0.20    0.23
  -5   2   0    0.61    0.65
   5   2   0   -0.24    0.99
  -5  -2   0    0.29    0.67
  -5   2   0   -0.07    0.61
  -5  -2   0   -0.90    0.72
  -5   2   0    1.47    0.82
  -5   2   0    1.15    1.55
  -5  -2   0    1.22    1.48
  -5  -2  -1  131.62    7.27
  -5   2   1  109.40    5.76
   5  -2   1  124.28    6.57
   5   2  -1  120.39    6.56
  -5  -2  -1  129.30    5.84
  -5   2   1  121.36    5.75
  -5   2   1  125.72    7.19
  -5   2   1  101.95    5.98
  -5  -2  -1  113.77    5.80
  -5  -2   1  124.57    6.33
  -5  -2   1  138.28    7.49
  -5   2  -1  113.55    5.75
   5   2   1  128.60    6.88
   5  -2  -1  118.99    6.30
  -5  -2   1  120.47    5.78
  -5  -2   1  118.74    6.12
  -5   2  -1  110.08    6.39
  -5   2  -1  114.94    5.83
  -5  -2   1  125.09    5.76
  -5   2  -1  129.41    7.30
  -5   2  -1  118.89    5.73
  -5  -2   1  119.36    5.72
  -5   2  -1  120.63    5.79
  -5   2   2    1.08    1.20
  -5   2   2    0.82    0.63
  -5   2   2    0.70    0.69
   5   2  -2   -1.44    1.38
   5  -2   2    2.80    1.48
  -5   2   2   -0.27    1.50
  -5   2   2    0.88    0.86
  -5  -2  -2    3.05    1.88
  -5  -2  -2    0.93    0.62
  -5   2   2    0.44    0.69
  -5  -2  -2   -0.17    0.87
  -5  -2  -2   -0.85    0.96
  -5  -2   2    0.10    0.61
  -5  -2   2   -0.54    1.14
  -5  -2   2   -1.02    0.71
   5   2   2    2.06    1.36
  -5  -2   2    1.51    0.70
  -5   2  -2    0.39    1.68
  -5   2  -2    0.06    1.57
   5   2   2    0.27    1.21
  -5   2  -2    0.46    0.66
  -5   2  -2    0.53    1.08
  -5  -2   2    0.08    1.72
   5  -2  -2    3.57    1.38
  -5   2  -2   -0.03    0.64
  -5   2  -2    1.07    0.70
  -5  -2   2    0.39    0.63
   5  -2   3  204.72   10.54
   5   2  -3  218.58   10.73
  -5   2   3  192.10   10.52
  -5  -2  -3  209.08    9.59
  -5   2   3  200.68    9.67
  -5   2   3  214.61    9.64
   5  -2   3  195.86    9.64
  -5  -2  -3  196.60    9.66
  -5  -2  -3  192.87    9.62
  -5   2   3  204.63   10.41
  -5  -2  -3  221.19   11.08
  -5   2   3  205.10    9.63
  -5   2   3  203.79    9.75
  -5   2  -3  204.87    9.59
   5   2   3  201.78   10.49
  -5  -2   3  210.29   10.98
  -5  -2   3  208.14    9.64
  -5  -2   3  201.08   10.43
  -5  -2   3  209.30    9.71
   5   2   3  209.24   10.33
  -5   2  -3  213.14    9.69
  -5   2  -3  208.19    9.65
  -5   2  -3  225.03   11.01
  -5  -2   3  208.97    9.63
  -5   2  -3  212.05    9.63
  -5  -2   3  208.97    9.65
  -5   2  -3  207.28   10.83
  -5   2  -3  205.40    9.67
   5  -2   4   -1.13    1.66
   5   2  -4    0.31    3.43
  -5  -2  -4   -1.34    2.44
  -5   2   4    1.29    1.02
   5  -2   4    0.39    0.77
  -5   2   4   -2.40    1.59
  -5  -2  -4    3.55    3.13
  -5   2   4   -0.04    0.72
  -5   2   4   -0.15    1.30
  -5  -2  -4    0.40    0.68
  -5   2   4    0.57    0.77
  -5  -2  -4    0.65    0.87
   5   2   4    0.20    0.76
  -5  -2   4   -0.74    0.78
  -5   2  -4    0.47    0.98
  -5   2  -4    1.06    0.86
  -5   2  -4   -2.16    2.21
  -5   2  -4   -2.25    1.81
  -5  -2   4    0.53    0.87
  -5  -2   4    0.11    1.51
  -5  -2   4    0.28    0.74
   5   2   4   -1.39    1.73
  -5   2  -4    0.87    0.78
  -5  -2   4   -0.97    0.74
  -5   2  -4    0.40    0.85
  -5   2   5   20.03    1.77
  -5  -2  -5   19.49    4.09
  -5  -2  -5   18.13    1.56
  -5   2   5   17.49    1.66
  -5   2   5   19.97    1.75
   5  -2   5   19.49    1.61
   5   2  -5   13.64    2.78
  -5   2   5   18.95    1.78
  -5  -2  -5   19.42    1.55
   5  -2   5   14.81    2.56
  -5   2   5   24.34    3.79
  -5  -2   5   22.64    1.68
  -5  -2   5   18.73    1.79
   5   2   5   20.68    1.57
  -5   2  -5   20.78    3.17
   5   2   5   24.41    1.76
  -5  -2   5   27.50    3.63
  -5  -2   5   22.94    1.82
  -5   2  -5   20.92    1.66
  -5   2  -5   20.69    1.62
  -5  -2   5   17.71    1.87
  -5   2   6    3.46    0.88
  -5   2   6    2.37    0.92
   5   2  -6    4.62    3.56
   5  -2   6    5.08    2.40
  -5   2   6    1.80    0.79
  -5  -2  -6    2.31    0.75
   5  -2   6    3.14    0.82
  -5  -2  -6    2.43    0.77
  -5   2   6    3.60    0.91
   5  -2   6    2.80    0.80
  -5  -2   6    3.79    1.05
  -5  -2   6    9.56    3.39
  -5  -2   6    2.48    0.85
  -5   2  -6    3.81    0.81
  -5  -2   6    3.10    0.86
  -5   2  -6    4.43    0.90
  -5  -2   6    3.83    1.08
   5   2   6    3.15    0.80
  -5   2  -6   -4.29    3.35
  -5   2   7   66.78    3.24
  -5   2   7   63.31    3.33
  -5   2   7   64.67    3.31
  -5  -2  -7   63.96    3.14
  -5  -2  -7   64.55    3.15
  -5   2   7   60.50    3.30
   5  -2   7   61.67    3.20
   5  -2   7   63.88    3.20
  -5  -2   7   63.94    3.44
  -5   2  -7   64.42    3.19
  -5  -2   7   64.48    3.33
  -5   2  -7   62.16    3.16
  -5  -2   7   62.83    3.28
   5   2   7   59.33    3.20
  -5   2   8    1.43    0.55
   5   2  -8    1.55    0.47
  -5  -2  -8    1.96    0.47
   5  -2   8    1.86    0.41
  -5  -2  -8    1.07    0.40
  -5   2   8    1.34    0.51
  -5  -2   8    0.40    0.51
  -5  -2   8    1.18    0.49
   5   2   8    1.38    0.45
  -5  -2   8    1.92    0.87
  -5   2  -8    1.80    0.44
   6   2   0   60.48    4.41
  -6   2   0   63.18    5.34
  -6   2   0   58.63    3.17
  -6   2   0   58.20    3.28
  -6   2   0   60.29    3.18
  -6  -2   0   57.49    3.18
  -6  -2   0   63.30    3.28
  -6   2   0   62.84    3.25
  -6  -2   0   61.39    3.24
  -6   2   0   58.91    3.15
  -6  -2   0   67.36    5.34
  -6  -2   0   62.08    3.17
  -6   2   1    1.52    0.75
  -6   2   1    0.53    0.73
   6   2  -1    2.28    1.74
  -6   2   1    1.96    2.07
  -6   2   1    0.73    0.64
   6  -2   1    1.03    1.68
  -6  -2  -1    0.39    0.82
  -6  -2  -1    2.35    2.00
  -6  -2  -1    1.28    0.73
  -6   2   1    1.38    0.81
  -6  -2  -1    1.15    0.71
  -6  -2  -1    0.91    0.73
  -6  -2  -1    1.48    0.77
   6   2   1   -0.25    0.91
  -6  -2   1    0.57    0.67
  -6   2  -1    0.78    0.71
   6   2   1   -0.98    1.84
  -6   2  -1    0.06    0.81
  -6   2  -1    1.85    2.14
  -6   2  -1    1.54    0.84
  -6  -2   1    1.35    2.10
  -6   2  -1    0.07    0.71
  -6  -2   1    1.64    0.76
  -6  -2   1   -0.19    0.81
   6   2   1    0.33    1.37
  -6  -2   1    0.35    0.77
  -6   2  -1    0.94    0.74
   6  -2   2  269.40   13.15
  -6   2   2  250.40   12.07
  -6   2   2  259.25   12.06
  -6  -2  -2  278.56   12.09
   6   2  -2  252.56   13.19
  -6  -2  -2  260.79   12.00
  -6  -2  -2  272.83   12.02
  -6  -2  -2  255.41   12.07
  -6  -2  -2  288.23   14.02
  -6   2   2  253.93   12.08
  -6   2   2  254.95   13.55
  -6   2   2  262.91   12.04
   6   2   2  255.25   13.13
  -6  -2   2  262.50   12.09
  -6  -2   2  265.69   13.89
  -6   2  -2  265.64   12.08
   6   2   2  259.54   12.87
   6  -2  -2  248.57   13.16
  -6  -2   2  236.48   12.06
  -6   2  -2  266.27   12.01
  -6  -2   2  264.08   13.10
  -6  -2   2  259.56   12.05
  -6  -2   2  242.25   12.10
  -6   2  -2  262.53   12.06
  -6   2  -2  273.06   13.82
  -6  -2   2  243.17   12.09
  -6   2  -2  264.86   12.19
  -6  -2  -3    3.01    0.90
  -6   2   3    4.11    0.87
   6  -2   3    4.39    0.93
   6   2  -3    1.98    1.99
  -6   2   3    0.31    1.58
  -6   2   3    3.36    0.84
  -6   2   3    3.72    0.84
  -6  -2  -3    4.27    0.84
  -6  -2  -3    3.75    2.39
  -6   2   3    3.17    0.89
   6  -2   3    1.58    1.80
  -6  -2  -3    3.47    0.86
  -6   2   3    5.91    2.32
  -6  -2   3    1.02    2.76
  -6   2  -3    3.62    0.88
   6   2   3    5.78    1.84
  -6  -2   3    3.54    0.85
  -6   2  -3    3.10    0.94
  -6   2  -3    3.18    0.81
   6  -2  -3    1.66    2.43
  -6  -2   3    2.92    0.83
  -6  -2   3    3.75    1.68
  -6   2  -3    4.32    0.77
  -6   2  -3    3.67    2.09
  -6  -2   3    3.59    0.92
  -6  -2   3    1.70    0.84
  -6  -2  -4   79.54    3.89
   6   2  -4   74.30    6.16
  -6   2   4   76.63    3.93
  -6   2   4   75.95    3.95
  -6   2   4   77.84    5.42
  -6   2   4   78.24    3.97
  -6  -2  -4   77.27    3.85
   6  -2   4   73.46    3.89
  -6   2   4   76.81    3.89
  -6  -2  -4   74.14    7.20
   6  -2   4   73.88    5.64
   6   2   4   77.44    5.60
  -6  -2   4   80.50    3.95
  -6   2  -4   78.41    3.91
   6   2   4   75.99    3.94
  -6  -2   4   71.63    5.37
  -6   2  -4   73.65    3.86
  -6  -2   4   78.35    3.97
  -6  -2   4   76.00    3.96
   6  -2  -4   71.06    6.42
  -6   2  -4   72.95    3.87
  -6  -2   4   76.78    4.05
   6   2  -5    2.36    2.93
  -6   2   5   -5.53    2.65
   6  -2   5   -2.55    2.35
   6  -2   5    1.29    0.72
  -6   2   5    1.53    0.75
  -6  -2  -5    1.42    0.83
  -6   2   5    1.06    0.94
  -6   2   5    1.76    0.80
  -6  -2   5    2.32    0.88
  -6  -2   5    1.14    0.92
  -6  -2   5    3.06    2.62
  -6  -2   5    0.19    0.87
  -6  -2   5    0.30    0.95
  -6   2  -5   -1.03    0.79
  -6   2  -5    0.77    0.86
   6  -2  -5   -0.06    3.59
   6   2   5    1.66    0.80
   6   2   5    2.57    0.74
  -6   2   6  102.61    4.89
   6  -2   6  103.67    4.84
  -6   2   6   99.86    4.92
  -6   2   6   97.46    4.96
   6  -2   6   94.71    4.80
  -6  -2  -6   97.34    4.80
  -6  -2   6  105.34    4.85
  -6   2  -6  100.11    4.78
   6   2   6   96.47    4.84
  -6  -2   6  102.02    4.93
  -6  -2   6   92.70    4.93
  -6  -2   6  100.88    5.01
  -6   2  -6  104.21    4.83
  -6   2   7    1.11    0.58
   6   2  -7    2.64    0.74
  -6  -2  -7    1.37    0.56
  -6   2   7    1.15    0.56
   6   2   7    1.34    0.52
  -6   2  -7    0.36    0.50
  -6   2  -7    1.93    0.89
  -6  -2   7    0.20    0.56
  -6  -2   7   -0.02    0.70
  -6  -2   7    0.41    0.65
  -6   2   8   25.38    1.36
  -6   2   8   26.27    1.35
  -6  -2   8   24.64    1.34
  -6  -2   8   24.36    1.35
   6   2   8   25.16    1.29
  -7  -2   0    0.23    0.89
  -7  -2   0    0.69    0.77
   7   2   0   -5.58    3.14
  -7   2   0    1.63    0.73
  -7   2   0    0.20    0.77
  -7   2   0   -0.09    0.74
  -7   2   0   -0.13    0.77
  -7   2   0    1.04    0.89
  -7  -2   0   -0.42    0.83
  -7  -2   0    0.27    0.83
  -7  -2   0    0.36    2.64
   7   2   0   -1.59    0.83
  -7   2   0   -1.34    2.52
   7  -2   0    1.26    2.06
  -7   2   1   33.23    2.07
  -7   2   1   28.28    2.17
  -7   2   1   23.40    4.12
  -7   2   1   30.32    2.17
  -7  -2  -1   29.89    2.01
  -7  -2  -1   31.40    2.18
  -7  -2  -1   30.03    1.92
  -7   2   1   30.22    1.99
  -7  -2  -1   32.85    2.11
   7   2  -1   28.66    4.74
   7   2   1   24.04    3.61
  -7  -2   1   34.54    2.13
  -7   2  -1   30.51    2.11
  -7   2  -1   32.42    2.18
  -7  -2   1   32.59    2.10
  -7  -2   1   31.48    2.18
  -7   2  -1   31.58    2.04
  -7  -2   1   42.30    7.22
  -7   2  -1   29.12    2.03
  -7  -2   1   30.59    2.12
  -7   2   2    4.25    3.79
  -7  -2  -2    2.33    2.67
  -7   2   2    2.60    0.87
  -7   2   2    3.41    0.87
   7  -2   2    4.35    2.11
   7   2  -2    5.09    2.54
  -7   2   2    3.87    0.91
  -7  -2  -2    3.18    0.92
  -7  -2  -2    2.24    0.82
  -7  -2  -2    2.30    0.79
  -7   2   2    2.14    1.00
  -7  -2  -2    3.30    0.72
  -7   2  -2    3.20    0.87
   7   2   2    4.20    2.34
  -7  -2   2    1.70    4.22
  -7  -2   2    3.89    0.90
  -7  -2   2    2.59    0.97
  -7   2  -2    4.79    2.57
  -7   2  -2    0.83    0.85
  -7  -2   2    1.82    0.94
  -7   2  -2    2.63    0.97
  -7  -2   2    2.94    0.89
  -7   2  -2    3.51    0.80
   7  -2   3   38.78    2.35
  -7   2   3   38.17    2.36
   7   2  -3   39.02    5.51
  -7  -2  -3   40.80    2.26
  -7   2   3   34.34    2.31
   7  -2   3   40.86    4.60
  -7   2   3   38.88    2.40
  -7  -2  -3   39.56    2.39
  -7   2   3   38.74    2.46
  -7  -2  -3   38.20    2.39
  -7  -2  -3   41.41    6.23
  -7   2  -3   41.44    2.41
  -7   2  -3   40.87    2.39
  -7  -2   3   39.73    2.49
   7   2   3   34.71    4.87
  -7   2  -3   41.01    2.48
  -7  -2   3   31.40    4.41
  -7  -2   3   40.21    2.51
  -7  -2   3   39.02    2.41
   7   2   3   36.10    2.33
  -7  -2   3   39.26    2.40
  -7   2  -3   41.73    5.68
  -7   2  -3   38.62    2.28
   7  -2   4    4.24    0.83
  -7   2   4    6.13    0.87
  -7  -2  -4    5.74    0.86
   7  -2   4    7.00    2.80
  -7  -2  -4    3.65    0.77
  -7   2   4    6.75    1.04
  -7   2   4    4.77    0.94
  -7   2   4    5.94    1.00
   7   2  -4    1.25    3.46
   7   2   4    5.35    0.90
  -7   2  -4    6.14    0.87
  -7  -2   4    1.20    2.68
  -7   2  -4    4.32    0.94
  -7   2  -4    3.74    0.80
  -7  -2   4    5.69    1.08
  -7  -2   4    5.70    1.05
  -7  -2   4    5.93    1.06
  -7  -2   4    4.45    1.11
  -7   2   5   75.27    3.73
   7  -2   5   69.68    3.62
  -7   2   5   74.08    3.74
  -7  -2  -5   73.42    3.64
  -7   2   5   70.96    3.68
  -7   2   5   71.74    3.72
  -7   2  -5   77.48    3.68
  -7  -2   5   78.32    3.74
  -7  -2   5   72.21    3.79
  -7  -2   5   68.75    3.74
   7   2   5   70.74    3.70
  -7  -2   5   73.01    3.78
  -7   2   6    0.67    0.52
  -7  -2  -6    0.09    0.54
  -7   2   6   -0.36    0.60
   7  -2   6   -0.78    0.46
  -7   2   6    0.66    0.59
  -7   2  -6    0.08    0.51
   7   2   6    0.40    0.51
  -7  -2   6    1.22    0.71
  -7  -2   6    0.09    0.64
  -7  -2   6   -0.20    0.61
  -7  -2   6    0.43    0.57
   7  -2   7   22.19    1.21
  -7   2   7   23.38    1.31
  -7   2   7   23.01    1.33
  -7  -2  -7   22.34    1.21
  -7  -2   7   25.11    1.31
   7   2   7   23.30    1.29
  -7  -2   7   24.20    1.30
  -7   2  -7   21.83    1.24
  -8  -2   0   72.00    3.77
  -8   2   0   73.72    3.78
   8   2   0   67.14    5.99
   8  -2   0   82.23    6.51
  -8  -2   0   78.33    3.87
  -8   2   0   64.22    3.69
  -8  -2   0   74.34    7.57
  -8   2   0   79.20    3.95
  -8   2   0   76.70    7.40
  -8  -2   0   68.81    3.84
  -8   2   0   73.46    3.90
  -8  -2  -1    3.95    0.95
   8   2  -1    2.48    0.92
  -8  -2  -1    3.47    0.91
  -8   2   1   10.38    3.91
  -8   2   1    3.00    0.95
  -8  -2  -1    5.00    3.55
   8  -2   1    3.40    3.01
  -8   2   1    4.66    0.98
  -8   2   1    1.88    0.92
  -8   2   1    3.14    0.88
  -8  -2  -1    1.88    0.73
  -8  -2   1    4.17    1.01
  -8   2  -1    3.61    1.07
  -8  -2   1    2.42    0.93
  -8   2  -1    2.87    0.84
  -8   2  -1   -1.30    3.36
   8   2   1    3.86    2.70
  -8  -2   1    1.46    3.93
  -8   2  -1    3.73    0.89
  -8  -2   1    2.99    0.95
  -8   2  -1    3.75    0.95
  -8  -2   1    4.45    1.01
   8  -2  -1   -0.65    2.97
  -8   2   2   64.35    3.35
  -8   2   2   59.62    3.29
  -8  -2  -2   59.25    3.16
  -8  -2  -2   57.06    7.43
   8  -2   2   52.61    6.05
  -8   2   2   57.68    3.28
  -8  -2  -2   60.22    3.29
  -8   2   2   62.07    3.38
  -8  -2  -2   64.40    3.32
  -8  -2  -2   61.74    3.19
  -8  -2   2   63.03    3.40
  -8   2  -2   65.10    3.38
  -8  -2   2   62.12    3.34
  -8   2  -2   63.86    7.27
  -8   2  -2   61.04    3.21
  -8  -2   2   62.61    3.28
  -8   2  -2   61.62    3.34
  -8  -2   2   64.31    3.37
  -8   2  -2   65.74    3.27
  -8   2   3   28.78    1.88
   8  -2   3   25.83    1.83
  -8  -2  -3   27.23    1.95
  -8  -2  -3   28.36    1.77
  -8   2   3   31.99    2.36
  -8   2  -3   26.08    1.76
  -8   2  -3   26.87    2.00
  -8   2  -3   23.04    2.46
  -8   2   4   51.03    2.81
  -8   2   4   54.97    2.87
  -8  -2  -4   52.80    2.73
  -8  -2  -4   52.17    2.75
  -8   2   4   55.56    2.81
   8  -2   4   53.23    2.78
   8   2   4   50.32    2.79
  -8   2  -4   53.09    2.79
  -8  -2   4   51.00    2.88
  -8   2  -4   51.97    2.74
  -8  -2   4   52.65    2.86
  -8  -2   4   56.05    2.87
   8  -2   5    0.53    0.50
  -8   2   5    1.51    0.57
  -8  -2  -5    1.43    0.52
  -8   2   5    0.68    0.57
  -8  -2   5    0.86    0.52
  -8  -2   5    1.13    0.62
  -8   2  -5    1.40    0.50
  -8  -2   5    0.38    0.62
   8   2   5    1.29    0.55
  -8   2   6   27.98    1.50
   8  -2   6   26.04    1.41
  -8  -2  -6   27.94    1.44
  -8   2   6   29.55    1.52
  -8  -2   6   28.28    1.51
   8   2   6   26.70    1.44
  -8  -2   6   27.91    1.51
  -8   2  -6   26.93    1.44
  -9  -2   0   -0.40    0.62
  -9   2   0    0.02    0.72
  -9  -2   0    0.05    0.69
  -9   2   0   -0.29    0.77
  -9   2   0    0.16    0.70
  -9  -2   0    1.06    0.66
  -9  -2  -1   43.72    2.50
  -9   2   1   45.84    2.53
  -9   2   1   42.61    2.47
  -9   2   1   44.50    2.58
  -9  -2  -1   43.01    2.36
  -9   2  -1   46.80    2.54
  -9  -2   1   45.88    2.51
  -9  -2   1   43.03    2.54
  -9   2  -1   46.20    2.44
  -9   2  -1   43.33    2.38
  -9   2  -1   44.75    2.54
  -9  -2   1   44.71    2.44
  -9   2   2    2.22    0.69
  -9   2   2    1.95    0.69
  -9   2   2    2.33    0.66
   9  -2   2    0.75    0.75
  -9   2   2    1.88    0.75
  -9  -2  -2    2.75    0.75
   9   2   2    1.58    0.65
  -9  -2   2    1.66    0.62
  -9   2  -2    2.08    0.74
  -9   2  -2    1.53    0.62
  -9  -2   2    1.93    0.69
  -9  -2   2    2.37    0.70
  -9   2  -2    1.73    0.59
  -9  -2   2    1.27    0.77
  -9   2  -2    1.68    0.71
   9   2  -3   27.21    2.02
  -9   2   3   27.67    1.74
  -9   2   3   27.93    1.80
  -9  -2  -3   26.16    1.60
  -9  -2  -3   30.51    1.71
  -9   2   3   30.19    1.75
  -9  -2   3   29.99    1.79
  -9   2  -3   30.70    1.69
  -9  -2   3   28.58    1.81
  -9   2  -3   30.54    1.70
   9   2   3   28.01    1.71
  -9   2  -3   26.36    1.60
  -9  -2   3   31.16    1.75
  -9  -2  -4   -0.28    0.65
  -9  -2  -4    0.33    0.70
   9   2  -4    0.88    0.62
  -9   2   4    1.29    0.54
  -9   2   4    0.79    0.49
  -9   2   4   -0.49    0.50
  -9  -2   4    1.12    0.55
   9   2   4    1.25    0.49
  -9   2  -4    0.67    0.45
  -9  -2   4    1.40    0.54
  -9   2  -4    0.81    0.77
  -9  -2   4    0.49    0.53
  -9   2   5   11.65    0.98
  -9  -2  -5    8.19    0.66
  -9   2  -5   10.08    0.69
  -9  -2   5    9.70    0.79
  -9  -2   5    7.45    0.72
   9   2   5   10.41    0.75
 -10  -2   0   41.59    2.13
 -10  -2   0   41.29    2.18
 -10   2   0   42.75    2.14
  10  -2   0   36.51    2.25
 -10   2   0   40.39    2.08
 -10   2   0   43.32    2.17
 -10  -2  -1    0.76    0.52
 -10  -2  -1    1.27    0.48
 -10   2   1   -0.15    0.44
 -10   2   1   -0.38    0.55
 -10   2   1    0.65    0.52
  10   2   1    0.08    0.50
 -10   2  -1    0.07    0.45
 -10   2  -1    0.08    0.47
 -10  -2   1    1.72    0.66
 -10  -2   1    0.25    0.42
 -10  -2   1    0.32    0.45
 -10   2   2   15.95    1.07
 -10  -2  -2   15.41    1.04
 -10   2   2   13.43    1.10
  10   2   2   14.91    1.01
 -10   2  -2   14.43    1.00
 -10  -2   2   15.58    1.09
 -10  -2  -3    0.49    0.36
 -10   2   3    0.24    0.42
 -10   2   3    0.89    0.35
 -10   2  -3   -0.03    0.37
  10   2   3    0.15    0.38
 -10  -2   3    1.29    0.42
 -10  -2   3    0.57    0.41
   0  -3   0    0.12    0.25
   0   3   0    0.62    1.25
   0   3   0   -0.23    0.39
   0  -3   0   -0.01    0.50
   0  -3   0   -0.37    0.89
   0   3  -1  569.40   26.67
   0  -3   1  582.08   27.42
   0   3  -1  598.00   27.46
   0  -3  -1  614.31   27.14
   0   3   1  613.45   27.10
   0   3   1  539.64   26.71
   0   3   1  590.11   26.67
   0  -3   1  576.44   26.54
   0   3  -1  512.10   26.65
   0  -3  -1  643.97   26.80
   0   3  -2    0.72    0.65
   0   3   2    0.33    0.67
   0   3  -2    0.85    0.55
   0   3   2    2.31    1.26
   0   3   2    0.67    0.36
   0   3  -2    1.20    2.26
   0  -3  -2    0.71    0.70
   0  -3   2    0.21    0.66
   0   3   2   -0.25    0.52
   0  -3   2    0.08    0.54
   0  -3   2   -2.46    1.97
   0  -3  -2    0.02    1.56
   0  -3   3   -0.04    0.81
   0  -3  -3    2.51    2.95
   0   3   3   -0.06    0.58
   0   3   3    1.22    0.99
   0   3   3   -2.61    2.42
   0  -3   3    0.72    0.84
   0   3  -3   -0.02    0.89
   0  -3   3    5.81    3.97
   0   3   4    0.03    0.89
   0   3  -4    1.17    2.24
   0  -3   4    0.02    1.13
   0   3   4    0.30    1.05
   0  -3  -4    1.18    1.44
   0   3   5  120.90    5.74
   0  -3   5  110.52    5.77
   0   3   5  125.21    5.74
   0   3   5  120.52    5.73
   0   3   5  117.93    7.57
   0   3   5  119.33    6.32
   0   3  -5  132.37    7.54
   0  -3   5  125.73    6.80
   0   3  -5  123.18    5.79
   0  -3   5  121.69    5.76
   0   3   5  117.04    5.78
   0  -3   5   99.76    5.77
   0  -3   5  109.45    6.08
   0   3   6   -0.04    0.80
   0  -3   6    0.23    0.99
   0   3   6   -0.18    0.84
   0   3   6   -0.18    0.90
   0  -3   6    0.05    1.98
   0  -3   6    0.48    0.86
   0   3  -6    0.13    0.78
   0   3   6   -0.55    0.78
   0   3  -6    4.15    2.48
   0   3   6    0.99    2.31
   0  -3   7    3.90    0.96
   0  -3   7    5.76    2.46
   0   3  -7    3.53    0.86
   0  -3   7    5.17    1.09
   0   3   7    3.39    0.84
   0   3   7    4.49    1.05
   0   3   7    4.75    0.96
   0  -3  -7    7.27    3.06
   0   3   7    4.77    1.04
   0   3  -7    1.93    3.06
   0   3   7    9.83    3.02
   0  -3   8    0.61    0.82
   0   3   8    0.18    0.67
   0   3  -8    0.55    0.71
   0   3   8    0.92    0.72
   0  -3   8    0.64    0.81
   0   3   8   -0.20    0.78
   0  -3  -9    5.06    0.59
   0   3   9    5.44    0.67
   0  -3   9    3.71    0.51
   0   3  -9    5.84    0.78
   0   3   9    4.91    0.81
   0   3  -9    5.99    0.81
   0   3   9    4.03    0.63
  -1   3   0   -0.41    0.93
  -1  -3   0    0.05    0.24
   1   3   0    0.56    0.49
  -1  -3   0    0.78    1.19
  -1   3   0    0.14    0.39
  -1  -3   0    1.48    0.65
   1   3   0   -0.11    1.06
   1  -3   0   -1.29    0.88
  -1   3   0   -0.23    0.49
  -1   3   0   -0.02    0.42
   1  -3   0   -0.20    0.46
   1   3   0    0.36    0.37
   1   3  -1  122.24    6.84
  -1  -3  -1  127.38    6.92
  -1  -3  -1  129.77    6.26
  -1   3   1  126.17    5.99
   1  -3   1  112.33    5.92
  -1   3   1  126.44    6.09
  -1   3   1  123.49    5.99
   1  -3   1  119.31    6.97
   1   3  -1  116.77    5.95
   1   3  -1  126.15    5.92
   1   3   1  114.53    6.65
  -1  -3   1  120.98    5.82
  -1  -3   1  125.71    6.99
   1   3   1  114.82    5.61
  -1   3  -1  129.63    6.14
   1   3   1  123.95    6.11
   1  -3  -1  129.67    6.11
  -1  -3   1  124.90    6.20
  -1   3  -1  121.19    6.07
   1   3   1  128.40    5.98
  -1   3  -1  124.77    6.87
  -1   3  -1  122.31    5.74
  -1   3   2   18.73    1.56
  -1   3   2   18.48    1.57
   1  -3   2   16.90    3.21
  -1   3   2   19.00    1.74
   1  -3   2   19.48    1.57
   1   3  -2   16.72    1.56
   1   3  -2   16.40    1.50
  -1  -3  -2   19.22    3.58
  -1  -3  -2   16.95    1.87
  -1   3   2   18.36    1.20
   1   3   2   14.28    2.81
   1   3   2   17.33    1.61
   1   3   2   17.22    1.17
   1  -3  -2   14.61    2.40
  -1  -3   2   19.23    1.82
  -1   3  -2   19.47    1.85
  -1  -3   2   18.94    1.35
  -1   3  -2   18.16    1.26
  -1  -3   2   13.30    3.34
  -1   3   3    1.42    0.93
  -1   3   3    0.74    2.36
   1  -3   3    3.22    1.07
   1  -3   3   -3.76    3.29
   1   3  -3    0.84    3.40
  -1  -3  -3    0.90    1.04
  -1  -3  -3    1.69    3.90
  -1   3   3    2.39    0.67
   1   3  -3    1.70    0.84
   1   3  -3    3.09    0.97
   1  -3  -3    1.12    0.82
   1   3   3    1.23    0.68
  -1  -3   3   -0.16    1.08
   1   3   3    1.30    1.01
   1   3   3   -1.84    4.48
  -1  -3   3    1.31    0.82
  -1   3  -3    0.81    1.12
   1   3  -4   -1.07    1.43
  -1   3   4    0.06    1.18
  -1   3   4    1.55    0.95
   1  -3   4   -0.91    1.15
  -1  -3  -4   -2.34    1.32
  -1  -3   4    0.67    1.07
   1   3   4    0.24    1.01
  -1   3  -4   -0.83    1.39
   1   3  -5   32.65    2.21
  -1   3   5   33.21    3.70
  -1   3   5   31.18    1.99
  -1  -3  -5   31.33    3.86
  -1   3   5   31.44    2.92
  -1   3   5   30.94    2.14
   1  -3   5   34.58    3.41
  -1   3   5   32.36    2.02
   1   3  -5   27.18    4.21
   1  -3   5   33.04    2.41
  -1   3   5   31.36    1.97
   1  -3   5   31.60    2.03
  -1   3  -5   34.45    2.10
  -1  -3   5   32.56    3.24
  -1  -3   5   28.49    2.06
  -1  -3   5   28.04    2.60
   1   3   5   32.29    2.03
  -1   3  -5   39.24    4.27
   1   3   5   30.43    2.00
  -1  -3   5   30.72    2.03
  -1  -3   5   29.97    2.24
   1   3   5   31.52    2.05
   1   3   5   31.05    3.00
  -1  -3   5   33.97    2.20
   1   3   5   33.83    2.12
   1   3   5   34.72    3.34
  -1   3   6   16.89    3.02
   1  -3   6   17.49    2.44
   1  -3   6   15.64    1.67
  -1  -3  -6   22.98    3.63
   1  -3   6   15.72    1.76
   1   3  -6   17.85    3.22
  -1   3   6   21.29    1.67
  -1   3   6   20.36    1.63
  -1   3   6   19.63    1.74
   1   3  -6   18.48    1.75
   1   3  -6   19.46    2.83
  -1   3   6   18.40    1.87
  -1   3  -6   20.61    4.29
   1   3   6   19.82    3.74
  -1   3  -6   19.22    1.72
   1   3   6   17.79    1.67
  -1  -3   6   19.99    1.74
  -1  -3   6   19.49    1.68
  -1  -3   6   21.49    1.95
   1   3   6   19.86    1.60
   1   3   6   18.20    1.69
   1  -3  -6   12.79    3.26
  -1  -3   6   16.00    2.04
   1   3   6   19.08    1.69
  -1  -3   6   20.94    3.32
  -1   3   7    8.81    1.24
  -1   3   7    8.01    1.05
   1  -3   7    9.14    2.70
  -1   3   7   14.13    2.99
   1  -3   7    9.80    1.41
   1   3  -7    9.95    4.20
  -1   3   7   10.64    1.65
   1   3  -7    7.11    1.02
  -1  -3  -7   14.79    3.43
   1  -3   7    7.92    1.12
  -1   3   7   10.71    1.38
  -1   3  -7    9.59    1.41
  -1   3  -7    6.49    3.07
   1   3   7    9.09    1.46
  -1  -3   7   10.13    1.62
   1   3   7   10.18    1.24
   1   3   7    9.50    1.34
  -1  -3   7    8.40    2.63
  -1  -3   7    8.58    1.11
  -1  -3   7    8.05    1.23
   1  -3  -7    9.73    3.59
  -1   3   8    4.54    0.83
  -1   3   8    6.25    1.00
   1   3  -8    5.30    0.86
  -1   3   8    8.20    1.21
   1  -3   8    5.60    0.90
   1  -3   8    6.45    0.90
   1   3   8    5.19    0.91
   1   3   8    6.80    0.81
  -1   3  -8    6.99    0.88
  -1  -3   8    6.65    0.93
  -1  -3   8    5.27    0.84
   1   3   8    8.47    1.20
  -1   3   9    0.40    0.52
  -1   3   9    1.08    0.42
   1   3  -9    0.72    0.40
  -1   3   9    0.78    0.46
   1  -3   9    0.32    0.43
  -1  -3  -9    0.48    0.40
   1   3   9    1.02    0.58
  -1  -3   9   -0.66    0.81
   1   3   9    0.07    0.47
  -1  -3   9   -0.13    0.42
   1  -3  -9    1.04    0.70
  -1   3  -9    0.43    0.45
  -2  -3   0   51.58    3.41
  -2   3   0   54.42    3.23
   2   3   0   57.21    3.08
  -2   3   0   56.86    2.76
  -2   3   0   56.25    3.05
   2   3   0   52.32    4.14
  -2  -3   0   55.65    4.19
   2  -3   0   55.12    3.57
  -2  -3   0   57.98    2.80
   2   3   0   58.82    2.85
   2  -3   0   54.01    3.43
   2   3  -1   27.38    1.56
   2  -3   1   27.80    1.92
  -2   3   1   28.09    1.70
   2  -3   1   24.26    3.60
  -2   3   1   27.30    1.79
  -2   3   1   25.57    1.94
  -2  -3  -1   23.65    2.36
   2   3  -1   26.85    1.89
   2  -3   1   27.05    3.24
  -2   3   1   24.71    1.61
  -2  -3  -1   28.75    3.77
  -2  -3   1   25.55    4.04
  -2  -3   1   25.89    1.58
  -2   3  -1   26.02    1.93
  -2  -3   1   24.01    2.29
   2   3   1   21.67    3.30
   2   3   1   27.38    1.94
  -2   3  -1   25.85    2.06
   2   3  -2  202.06   11.18
  -2   3   2  185.71    9.44
  -2  -3  -2  205.06   11.64
   2   3  -2  197.24    9.27
   2  -3   2  205.05    9.53
   2  -3   2  183.86   12.42
   2   3  -2  202.28    9.51
  -2   3   2  198.32    9.47
   2  -3   2  188.39   11.19
  -2   3   2  205.30    9.47
  -2   3   2  204.31    9.45
  -2  -3  -2  171.37    9.73
   2   3   2  193.54    9.20
   2   3   2  199.33    9.56
   2   3   2  196.54   11.17
  -2  -3   2  182.96    9.78
  -2  -3   2  198.83    9.32
  -2  -3   2  189.97   10.84
  -2   3  -2  205.85    9.73
  -2   3  -2  204.81    9.67
  -2   3   3   65.14    3.43
   2  -3   3   50.32    8.09
   2   3  -3   65.75    3.77
   2   3  -3   63.21    3.80
   2  -3   3   63.60    3.80
  -2  -3  -3   55.22    3.98
   2   3  -3   66.18    7.77
  -2   3   3   65.07    3.87
   2   3   3   61.81    3.47
  -2   3  -3   66.19    4.24
   2   3   3   69.06    3.88
  -2  -3   3   51.54    4.04
  -2   3  -3   65.16    3.86
  -2  -3   3   64.66    3.60
  -2   3   4   38.05    3.33
   2   3  -4   38.77    3.51
  -2   3   4   35.03    2.23
  -2  -3  -4   34.49    3.54
   2  -3   4   36.85    3.17
  -2   3   4   37.75    2.29
  -2   3   4   35.89    2.66
  -2  -3  -4   32.63    3.67
   2   3   4   34.37    2.76
  -2   3  -4   38.06    2.16
   2   3   4   35.87    2.21
   2   3   4   39.92    3.28
  -2  -3   4   34.06    2.76
  -2  -3   4   37.95    2.11
  -2  -3   4   34.29    2.37
  -2   3  -4   42.69    3.66
   2   3  -5   -1.45    2.15
  -2   3   5    0.93    0.72
  -2   3   5   -0.23    0.73
  -2   3   5   -0.19    0.85
  -2   3   5    0.78    0.71
   2  -3   5    0.59    1.61
   2  -3   5    0.89    0.98
  -2   3   5   -0.53    1.41
   2  -3   5   -0.66    0.68
  -2   3   5   -1.54    1.78
   2   3  -5    1.70    1.59
  -2  -3  -5   -1.33    1.85
   2   3   5   -0.21    0.81
   2   3   5   -0.65    1.50
  -2  -3   5    0.14    0.81
   2  -3  -5   -3.06    2.00
   2   3   5    0.54    0.77
  -2  -3   5    0.02    0.81
  -2   3  -5    0.10    0.84
  -2  -3   5    0.59    0.75
  -2  -3   5    1.32    1.01
  -2  -3   5    1.08    0.79
   2   3   5    0.92    0.78
   2   3   5    1.46    0.85
  -2   3  -5    3.11    2.12
  -2  -3   5    1.87    1.48
   2   3  -6    3.40    2.24
  -2   3   6   -0.23    0.79
   2   3  -6    0.70    1.02
  -2  -3  -6   -1.93    2.66
  -2  -3  -6   -0.44    0.72
   2  -3   6   -2.97    2.69
  -2   3   6   -0.80    0.74
  -2   3   6    0.50    0.91
   2  -3   6    1.68    0.87
   2  -3   6   -0.31    0.95
  -2   3   6    0.93    0.80
   2   3  -6   -0.99    3.40
  -2  -3   6    0.78    0.85
   2   3   6   -0.70    0.85
  -2   3  -6    0.67    0.85
   2   3   6    0.48    0.79
  -2  -3   6   -0.53    2.63
   2  -3  -6   -0.32    3.08
  -2  -3   6    1.04    0.85
  -2   3  -6    2.44    2.50
   2   3   6    1.67    0.80
   2   3   6    3.48    2.33
   2   3   6    0.47    0.77
  -2  -3   6    0.74    0.92
  -2  -3   6    0.25    1.05
   2  -3   7    2.38    0.88
  -2   3   7    3.65    0.87
   2   3  -7    5.34    3.45
   2  -3   7    2.50    0.92
  -2  -3  -7    1.89    0.71
  -2   3   7    2.36    1.03
  -2   3   7    2.98    0.96
   2   3  -7    3.28    1.09
   2  -3   7   -4.59    3.09
  -2   3   7    2.28    0.87
  -2  -3  -7    3.04    3.80
   2   3   7    1.85    0.80
   2   3   7    1.84    0.82
  -2  -3   7    3.39    2.41
  -2   3  -7    1.49    2.96
  -2  -3   7    1.82    0.98
  -2  -3   7    2.82    1.00
   2   3   7    1.92    0.81
   2   3   7   -0.97    4.01
  -2  -3   7    0.74    0.83
   2  -3  -7    2.77    5.07
  -2   3  -7    2.38    0.92
   2  -3   8    0.79    0.65
  -2   3   8    2.38    0.86
  -2   3   8    2.25    0.75
  -2   3   8    0.96    0.74
   2  -3   8    2.79    0.82
  -2  -3   8    1.28    0.71
  -2   3  -8    1.25    0.66
   2   3   8    1.77    0.80
  -2  -3   8    0.67    0.78
  -2  -3   8    1.48    0.78
   2   3   8    1.82    0.69
   2   3   8    2.06    0.67
   2   3  -9    2.44    0.55
  -2   3   9    2.83    0.47
  -2   3   9    2.72    0.60
   2  -3   9    2.43    0.42
  -2   3   9    2.45    0.64
  -2  -3  -9    2.68    0.56
  -2  -3   9    2.71    0.68
   2  -3  -9    2.76    0.76
   2   3   9    3.00    0.54
  -2  -3   9    2.64    0.62
  -2   3  -9    1.44    0.65
   3  -3   0    0.00    1.85
  -3  -3   0   -1.00    1.20
   3   3   0    3.76    2.90
  -3   3   0   -0.39    1.01
  -3  -3   0    0.74    0.75
   3  -3   0   -2.14    1.63
  -3  -3   0    0.02    0.55
  -3   3   0    0.36    0.63
  -3  -3   0    3.63    2.66
   3   3   0    0.21    0.70
   3  -3   1  100.74    7.01
  -3   3   1  103.87    4.90
  -3   3   1   99.14    5.01
   3   3  -1   97.85    7.06
  -3   3   1  100.54    5.40
  -3  -3  -1   82.41    5.54
   3   3  -1  102.40    5.15
   3  -3   1   96.77    5.10
  -3  -3  -1  116.41    7.93
   3  -3   1   84.49    7.69
  -3   3  -1   99.43    5.21
  -3   3  -1  104.16    5.65
  -3  -3   1   83.47    5.64
  -3  -3   1  100.78    7.13
  -3  -3   1  100.84    4.89
   3   3   1   90.24    6.65
   3   3   1   98.92    5.11
  -3   3   2   26.20    2.07
   3  -3   2   27.45    2.20
  -3   3   2   26.60    2.09
  -3  -3  -2   23.89    2.85
  -3   3   2   27.04    1.94
  -3   3   2   27.91    2.25
   3   3  -2   25.02    2.19
  -3  -3  -2   33.52    6.48
   3   3  -2   30.28    4.85
  -3   3  -2   26.64    2.54
   3   3   2   34.65    5.05
  -3  -3   2   20.47    2.79
  -3  -3   2   24.70    4.17
  -3   3  -2   30.61    2.61
  -3  -3   2   25.32    2.00
   3   3   2   27.91    2.38
   3   3   2   25.45    1.94
  -3  -3  -3   21.72    2.94
   3  -3   3   20.06    2.32
  -3   3   3   23.04    1.92
   3   3  -3   25.54    2.40
  -3   3   3   21.29    3.13
  -3  -3  -3   14.87    2.83
  -3   3  -3   22.79    2.71
  -3  -3   3   22.24    2.06
  -3  -3   3   16.27    2.91
  -3   3  -3   24.14    2.73
   3   3   3   21.78    2.02
  -3   3   4    0.94    0.83
  -3   3   4    1.09    0.77
  -3   3   4    1.54    0.66
  -3   3   4    0.64    1.16
  -3   3   4   -1.20    1.12
   3  -3   4   -1.31    1.25
   3   3  -4    0.83    1.58
  -3  -3  -4    0.47    1.87
  -3   3   4   -1.07    1.45
  -3  -3  -4    0.33    1.59
  -3   3   4    0.44    0.86
  -3  -3   4    0.97    1.16
  -3   3  -4    0.47    0.80
  -3  -3   4    0.28    0.93
  -3   3  -4    1.70    1.72
   3   3   4    0.76    0.85
  -3  -3   4    1.66    0.72
  -3  -3   4    0.33    0.73
  -3   3  -4   -0.73    0.76
   3   3   4    2.22    1.47
   3   3   4    3.40    1.39
  -3   3  -4    0.48    0.76
   3   3   4    0.62    0.78
   3   3   4    0.66    0.66
  -3   3  -4    0.98    1.47
  -3  -3   4    1.13    0.70
  -3   3   5    4.32    0.98
   3  -3   5    2.47    1.05
  -3   3   5    4.05    0.93
  -3   3   5    1.63    2.07
  -3   3   5    2.85    1.63
   3  -3   5    0.15    1.73
  -3   3   5    4.11    0.84
   3   3  -5    2.81    2.07
  -3  -3  -5    4.88    0.85
  -3   3   5    2.35    1.51
  -3   3   5    3.19    0.91
  -3  -3  -5    4.41    2.12
  -3  -3   5    1.70    1.61
   3   3   5    4.69    2.01
  -3  -3   5    2.95    0.85
   3  -3  -5    0.52    2.96
   3   3   5    3.08    1.17
  -3  -3   5    2.62    0.79
  -3   3  -5    4.59    0.94
   3   3   5    3.59    0.84
  -3   3  -5    5.13    1.95
  -3  -3   5    4.13    1.14
   3  -3   6    2.90    0.89
  -3   3   6    1.94    0.83
  -3   3   6    2.90    0.84
  -3   3   6    1.28    0.90
  -3  -3  -6    2.26    0.75
  -3   3   6    4.03    0.98
   3  -3   6    4.25    2.20
   3  -3   6    0.74    0.97
  -3  -3  -6    0.18    2.33
  -3   3   6    1.61    0.95
   3   3  -6    7.52    2.50
  -3  -3   6    1.86    0.89
   3   3   6   -5.10    2.76
  -3   3  -6    2.16    0.94
  -3  -3   6    1.19    1.00
  -3   3  -6   -1.28    2.36
  -3  -3   6    0.70    0.81
  -3   3  -6    3.38    0.86
  -3  -3   6    1.93    0.93
   3   3   6    1.87    0.87
   3  -3  -6    7.26    4.18
   3   3   6    1.72    0.84
  -3  -3   6   -1.51    1.99
  -3   3   7   20.54    1.92
   3  -3   7   22.58    1.72
  -3  -3  -7   20.02    1.48
  -3   3   7   21.54    1.83
  -3   3   7   19.64    1.75
  -3  -3   7   21.71    1.83
   3   3   7   21.36    1.64
   3   3   7   21.22    2.19
  -3   3  -7   19.37    1.68
  -3  -3   7   20.68    1.80
  -3  -3   7   19.81    1.96
  -3  -3  -8    1.78    0.64
  -3   3   8    1.88    0.64
   3  -3   8    1.56    0.60
  -3   3   8    1.04    0.71
  -3   3   8    0.60    0.69
  -3  -3   8    1.55    0.72
  -3   3  -8    1.92    0.58
  -3  -3   8    1.29    0.68
   3   3   8    0.56    0.59
  -3  -3   8    0.62    0.61
  -3   3   9    6.46    0.73
   3   3  -9    6.40    0.65
  -3   3   9    6.25    0.76
  -3  -3  -9    7.43    0.61
   3  -3   9    7.74    0.59
  -3   3  -9    6.11    0.60
  -3  -3   9    7.56    0.63
   3   3   9    7.41    0.66
  -4  -3   0   64.08    4.74
   4   3   0   74.96    4.16
   4  -3   0   70.03    5.98
  -4  -3   0   73.15    3.91
  -4   3   0   73.05    4.64
   4   3   0   57.18    9.16
  -4   3   0   72.90    4.04
   4  -3   1    3.66    1.23
  -4   3   1    3.09    1.00
  -4   3   1    1.86    1.29
  -4  -3  -1    7.38    5.81
  -4  -3   1    4.90    0.97
   4   3   1    6.12    5.33
  -4  -3   1    4.41    1.61
   4   3   1    2.15    1.15
  -4   3  -1    2.94    1.09
   4   3  -2    6.05    1.43
  -4  -3  -2    6.68    1.88
   4  -3   2    6.68    1.56
  -4   3   2    6.51    1.19
  -4  -3  -2    6.54    1.56
  -4   3   2    8.09    1.54
  -4   3   2    5.95    1.25
  -4  -3   2    6.04    1.69
   4   3   2    9.21    1.65
  -4   3  -2   10.37    2.61
  -4   3  -2    6.02    1.73
  -4  -3   2    9.50    1.67
   4   3   2    5.37    1.34
  -4  -3  -3   65.60    3.57
  -4   3   3   56.70    3.18
  -4   3   3   64.60    3.22
  -4  -3  -3   69.11    4.87
   4  -3   3   64.73    4.24
   4   3  -3   64.20    4.43
  -4   3   3   55.53    4.19
  -4   3   3   62.90    3.28
  -4   3   3   56.67    3.76
  -4  -3   3   63.02    3.19
  -4  -3   3   58.65    3.17
  -4  -3   3   61.75    3.24
  -4  -3   3   63.32    3.97
  -4   3  -3   63.99    3.24
  -4   3  -3   62.00    3.30
   4   3   3   61.60    3.19
  -4   3  -3   67.67    3.47
   4   3   3   57.34    3.31
  -4   3  -3   71.22    4.63
  -4  -3   3   62.07    3.31
  -4   3  -3   61.67    3.22
  -4   3  -3   58.89    3.20
  -4  -3   3   60.02    5.12
   4   3   3   59.76    4.08
  -4   3  -3   65.29    4.58
  -4  -3  -4    1.18    2.17
  -4   3   4    2.47    0.84
  -4   3   4    1.87    0.78
  -4   3   4    1.75    1.30
  -4  -3  -4    1.50    1.84
  -4   3   4    1.82    0.79
  -4  -3  -4    2.95    0.74
   4   3  -4    2.43    1.60
   4  -3   4    1.46    1.56
  -4   3   4    2.11    0.73
   4   3   4   -0.75    1.56
   4   3   4    2.91    0.86
  -4   3  -4   -1.38    1.93
  -4  -3   4    1.89    0.82
  -4  -3   4    1.43    1.41
  -4  -3   4    2.54    0.92
  -4  -3   4    2.51    0.79
   4  -3  -4    2.45    3.29
  -4  -3   4    2.42    0.78
   4   3   4    3.26    0.78
  -4   3  -4    1.15    0.80
  -4   3  -4    2.45    0.93
   4   3   4    3.91    1.79
  -4   3  -4    1.99    1.77
  -4   3  -4    2.54    0.84
  -4   3   5   -0.21    1.85
  -4   3   5    4.95    0.99
  -4   3   5    3.37    0.89
  -4   3   5    4.98    0.93
  -4   3   5    2.66    0.79
  -4  -3  -5    4.94    0.88
  -4  -3  -5    6.59    2.42
   4  -3   5    4.07    2.00
   4  -3   5    2.94    0.98
   4   3  -5    7.40    2.27
  -4  -3   5    2.80    0.94
  -4   3  -5    4.75    0.93
   4   3   5    7.90    2.56
   4   3   5    3.18    1.00
   4   3   5    5.12    0.94
  -4  -3   5    5.09    0.94
  -4  -3   5    3.21    1.10
  -4  -3   5    4.66    2.09
  -4  -3   5    4.97    0.93
  -4   3  -5    1.55    2.01
  -4   3  -5    4.04    0.94
   4   3  -6   16.72    3.19
  -4   3   6   12.26    1.54
   4  -3   6   14.25    2.61
  -4   3   6   12.02    1.56
   4  -3   6   13.73    1.55
  -4  -3  -6   15.00    1.39
   4  -3   6   16.02    1.57
  -4   3   6   17.21    1.80
  -4  -3  -6   11.80    3.08
  -4   3   6   15.15    1.50
  -4  -3   6    7.90    2.76
   4   3   6   14.30    1.46
  -4  -3   6   14.95    1.64
   4   3   6   14.14    1.53
  -4   3  -6   11.21    2.64
  -4  -3   6   13.40    1.47
  -4  -3   6   14.41    1.69
  -4  -3   6   16.55    2.00
  -4   3  -6   11.18    1.39
  -4   3  -6   13.23    1.53
  -4   3   7    1.07    0.88
  -4   3   7   -0.55    0.81
   4  -3   7    0.34    0.70
  -4   3   7    1.26    0.81
  -4  -3  -7    0.45    0.61
  -4  -3   7   -0.46    0.75
  -4  -3   7   -1.04    0.84
   4   3   7   -0.49    0.67
  -4   3  -7    2.19    0.70
  -4   3  -7   -0.35    0.68
  -4  -3   7    0.54    0.75
  -4  -3  -8    0.77    0.41
  -4   3   8   -0.51    0.60
  -4   3   8    0.82    0.51
   4  -3   8    0.19    0.45
  -4   3   8   -0.20    0.57
   4   3   8    0.68    0.55
  -4  -3   8    0.86    0.59
  -4  -3   8   -0.22    0.57
  -4  -3   8   -0.29    0.51
  -4   3  -8    0.37    0.47
  -5  -3   0   -0.28    0.76
  -5   3   0    0.40    1.59
   5   3   0   -1.91    1.20
  -5   3   0    0.31    0.66
  -5   3   0   -0.65    0.71
  -5   3   0   -0.04    0.65
  -5  -3   0    1.18    1.62
  -5  -3   0   -0.90    0.70
  -5   3   0    0.42    0.71
  -5   3   0    2.04    1.23
  -5  -3   0    1.05    0.72
  -5  -3  -1    8.72    1.26
  -5   3   1    7.99    1.24
  -5   3   1    5.79    1.85
   5   3  -1    5.51    1.60
   5  -3   1    5.42    1.60
  -5   3   1    9.57    1.15
  -5   3   1    5.29    1.72
  -5  -3  -1    3.57    1.77
  -5  -3  -1    4.69    0.88
  -5   3   1    6.88    0.94
  -5   3  -1    3.49    1.76
  -5   3  -1    8.71    1.19
  -5  -3   1    7.78    1.37
  -5   3  -1    6.90    0.94
  -5   3  -1    7.88    0.99
  -5  -3   1    8.02    1.19
  -5   3  -1    7.65    1.21
  -5  -3   1    6.81    2.09
  -5  -3   1    7.13    0.92
   5   3   1    8.79    1.57
  -5  -3   1    6.92    0.85
   5   3   1    5.30    0.93
  -5  -3   1    8.57    1.08
   5  -3  -1   10.49    2.52
  -5   3  -1    6.76    1.49
  -5  -3  -2    3.70    0.87
  -5  -3  -2    5.41    0.81
  -5  -3  -2    6.28    2.07
   5  -3   2    5.38    1.71
  -5   3   2    5.04    0.88
  -5   3   2    5.73    1.81
  -5   3   2    4.29    0.80
  -5   3   2    4.81    0.95
   5   3  -2    6.56    1.64
  -5   3   2    6.04    0.87
  -5   3  -2    6.46    2.02
   5   3   2    6.65    1.33
  -5   3  -2    4.85    0.80
  -5  -3   2    6.79    1.10
  -5  -3   2    6.51    1.01
  -5   3  -2    5.28    0.90
   5   3   2    6.14    1.75
  -5   3  -2    5.11    0.89
  -5  -3   2    5.54    0.91
  -5   3  -2    4.82    0.86
  -5  -3   2    5.65    0.91
  -5   3  -2    4.55    1.66
  -5  -3   2    3.91    1.34
  -5  -3   2    4.49    2.11
  -5   3   3    0.22    0.76
  -5   3   3    0.69    0.66
   5  -3   3    1.85    1.53
  -5   3   3    0.93    0.88
  -5  -3  -3    1.02    0.65
  -5  -3  -3   -1.53    1.86
  -5   3   3    0.96    1.39
  -5  -3  -3    0.66    0.77
  -5   3   3    0.06    0.65
   5   3  -3    0.97    1.82
  -5  -3   3   -1.29    2.22
  -5   3  -3    0.83    1.64
  -5   3  -3    0.15    0.87
   5   3   3    1.37    1.56
  -5   3  -3    1.32    0.78
  -5  -3   3    0.83    0.68
  -5  -3   3    0.76    1.52
  -5   3  -3    0.48    0.66
  -5  -3   3   -0.18    1.00
  -5  -3   3    0.03    0.70
   5   3   3   -2.41    1.62
  -5   3  -3   -1.55    1.74
  -5   3  -3    0.06    0.68
  -5  -3   3    1.49    0.78
  -5   3  -3   -0.37    0.81
   5   3   3   -0.99    0.84
  -5  -3  -4   64.00    3.19
  -5  -3  -4   61.76    5.76
  -5   3   4   53.37    4.32
  -5   3   4   58.60    3.22
   5  -3   4   56.78    4.76
  -5   3   4   57.24    3.17
   5   3  -4   60.88    5.31
  -5   3   4   61.81    3.22
  -5  -3   4   58.48    3.23
  -5   3  -4   61.51    5.12
  -5   3  -4   59.78    3.24
  -5  -3   4   61.81    3.40
  -5  -3   4   60.40    3.23
  -5   3  -4   60.90    3.19
   5   3   4   61.88    5.56
  -5   3  -4   63.30    5.44
   5   3   4   64.50    3.82
  -5  -3   4   61.14    3.27
  -5   3  -4   62.06    3.28
  -5  -3   4   59.24    4.57
  -5   3   5    0.47    0.78
  -5   3   5    1.71    0.82
   5  -3   5   -3.75    2.18
   5   3  -5    3.44    2.58
  -5   3   5    2.23    0.81
  -5   3   5    2.42    0.79
   5  -3   5    2.01    0.90
  -5  -3  -5    1.81    0.75
  -5   3  -5    2.08    0.82
  -5  -3   5    2.09    0.94
   5   3   5    1.22    0.87
  -5  -3   5    1.73    0.86
  -5  -3   5    1.89    1.15
  -5  -3   5    0.58    0.81
  -5   3  -5    1.76    0.86
  -5   3  -5    0.62    2.29
  -5  -3   5   -0.09    2.06
  -5   3   6    3.44    0.97
  -5  -3  -6    5.02    0.82
  -5   3   6    2.40    0.82
   5  -3   6    3.94    0.83
  -5   3   6    4.43    0.94
   5   3   6    3.94    0.88
  -5  -3   6    6.33    1.22
  -5  -3   6    5.70    1.06
  -5  -3   6    2.50    0.87
  -5   3  -6    4.99    0.91
  -5   3  -6    4.99    0.84
  -5  -3   6    3.39    1.00
  -5   3   7    9.15    1.26
  -5  -3  -7    8.58    1.05
  -5   3   7    9.12    1.20
   5  -3   7   11.58    1.16
  -5   3   7    6.96    0.87
  -5  -3  -7   10.06    0.97
   5   3   7   10.78    1.13
  -5  -3   7    9.20    1.21
  -5  -3   7    9.27    1.29
  -5  -3   7    6.69    1.02
  -5   3  -7    8.68    1.03
  -5   3  -7    8.03    1.06
  -5   3   8    0.24    0.62
  -5  -3  -8    1.02    0.40
   5  -3   8    0.53    0.34
  -5   3   8    1.00    0.46
   5   3  -8    0.94    0.47
  -5  -3   8    1.26    0.54
   5   3   8    1.11    0.62
  -5   3  -8    0.81    0.38
  -5  -3   8    1.37    0.67
  -6   3   0   44.99    2.47
  -6   3   0   38.27    4.69
   6  -3   0   47.45    4.07
  -6  -3   0   45.06    2.44
  -6   3   0   40.20    2.49
  -6   3   0   41.15    2.43
  -6  -3   0   42.50    4.85
   6   3   0   45.36    3.95
  -6   3   0   41.93    2.60
  -6   3   0   45.14    2.51
  -6  -3   0   44.16    2.59
  -6  -3   0   45.02    2.54
  -6  -3   0   45.86    2.56
  -6   3   1   28.52    5.21
  -6   3   1   31.55    1.99
  -6   3   1   28.46    1.94
  -6  -3  -1   27.88    1.93
  -6  -3  -1   29.13    1.94
  -6   3   1   27.17    2.10
  -6   3   1   31.44    1.97
   6  -3   1   32.27    3.43
  -6  -3  -1   29.81    2.07
  -6   3   1   28.28    1.84
  -6  -3  -1   30.12    2.04
  -6  -3  -1   37.25    4.52
   6   3  -1   29.62    3.47
  -6  -3   1   30.00    1.89
   6   3   1   23.52    3.79
  -6  -3   1   30.00    1.92
   6   3   1   30.72    3.11
  -6  -3   1   29.68    2.04
  -6  -3   1   29.97    2.10
  -6   3  -1   31.57    2.00
  -6  -3   1   25.75    4.92
  -6   3  -1   30.31    1.91
   6   3   1   27.97    2.39
  -6   3  -1   29.53    1.95
  -6   3  -1   32.43    4.34
  -6   3  -1   28.75    2.06
  -6   3   2    7.60    1.26
   6   3  -2    9.88    2.45
  -6   3   2    9.56    1.37
  -6   3   2    7.13    2.22
  -6  -3  -2    9.43    1.59
   6  -3   2    9.24    2.22
  -6   3   2    9.33    1.44
  -6   3   2    9.98    1.66
  -6  -3  -2    8.02    2.62
  -6  -3  -2   10.36    1.42
  -6  -3   2    6.22    2.79
   6   3   2    8.81    1.11
  -6   3  -2   10.74    1.41
  -6   3  -2   10.50    1.24
  -6   3  -2    9.72    1.42
   6   3   2   10.84    2.41
  -6  -3   2   12.77    1.46
  -6  -3   2   11.29    1.28
  -6   3  -2   10.77    1.48
  -6  -3   2    8.19    1.89
  -6   3  -2   11.14    2.66
   6   3   2   10.38    2.01
  -6  -3   2    9.27    1.74
  -6  -3  -3   11.66    1.22
  -6  -3  -3    4.40    2.64
  -6   3   3    6.58    1.04
  -6  -3  -3   11.48    1.57
   6  -3   3    7.96    2.58
  -6   3   3    9.15    1.08
  -6   3   3    9.83    1.30
  -6  -3  -3   11.00    1.39
   6  -3   3   10.96    1.56
   6   3  -3    8.03    2.67
  -6   3  -3    8.91    1.38
  -6  -3   3    5.58    4.79
  -6  -3   3    8.81    1.31
  -6   3  -3    8.41    2.61
   6  -3  -3    7.63    3.62
  -6   3  -3    9.49    1.16
  -6   3  -3   11.31    1.40
  -6  -3   3    6.23    1.91
   6   3   3    8.31    2.66
  -6   3  -3   10.41    1.27
  -6  -3   3    6.76    1.00
  -6  -3   3    9.90    1.52
  -6  -3   3   11.14    1.58
   6   3   3   12.37    3.11
  -6   3   4    1.56    0.92
  -6  -3  -4    0.93    0.80
  -6   3   4    0.07    0.72
  -6  -3  -4   -1.08    4.35
  -6   3   4    1.09    0.74
   6  -3   4    1.80    2.25
  -6  -3  -4    0.87    0.78
  -6   3   4   -0.20    0.79
   6   3  -4    0.54    2.44
   6  -3   4    0.70    0.87
  -6   3  -4    1.62    0.74
  -6  -3   4    0.77    0.83
  -6  -3   4   -1.74    2.03
  -6  -3   4   -0.15    0.83
  -6   3  -4   -0.81    0.88
  -6  -3   4    0.35    0.93
   6   3   4    0.87    0.82
  -6   3  -4   -0.30    0.82
  -6  -3   4   -0.21    0.86
   6  -3  -4    0.58    3.73
  -6   3  -4   -0.80    0.79
  -6   3   5    4.93    0.84
  -6   3   5    3.93    0.85
   6   3  -5    4.16    3.25
  -6   3   5    4.79    0.82
   6  -3   5    4.47    2.75
   6   3  -5    6.62    1.02
  -6  -3   5    4.57    0.99
  -6  -3   5    4.58    0.93
  -6   3  -5    4.17    0.89
  -6   3  -5    5.89    0.89
  -6  -3   5    5.95    1.12
   6   3   5    5.39    0.97
  -6  -3   5    6.20    2.83
  -6  -3   5    5.48    1.09
  -6   3   6    4.43    0.84
   6   3  -6    4.09    1.05
  -6   3   6    4.71    0.79
  -6   3   6    6.66    1.10
  -6  -3  -6    6.99    1.06
   6  -3   6    5.65    0.82
  -6   3  -6    5.38    0.76
  -6  -3   6    5.84    0.91
  -6  -3   6    4.91    1.11
  -6   3  -6    4.76    0.71
   6   3   6    4.11    0.71
  -6  -3   6    4.40    0.94
  -6  -3   6    7.26    0.83
   6  -3   7    2.29    0.49
   6   3  -7    1.34    0.73
  -6  -3  -7    1.23    0.47
  -6   3   7    0.96    0.51
  -6   3   7    1.24    0.51
  -6  -3   7    1.66    0.59
   6   3   7    1.45    0.51
  -6   3  -7    4.06    0.85
  -6  -3   7    0.10    0.55
  -6  -3   7    0.46    0.54
  -6   3  -7    2.45    0.58
  -6  -3   8    0.98    0.43
  -7  -3   0    0.64    0.74
  -7   3   0   -2.29    2.72
  -7   3   0   -0.86    0.79
  -7   3   0    0.26    0.74
  -7  -3   0   -1.33    2.75
   7   3   0    2.26    4.37
  -7   3   0    0.54    0.76
  -7  -3   0   -0.33    0.89
  -7   3   0    0.03    0.81
   7   3   0   -1.13    0.85
  -7   3   0   -0.55    0.91
  -7  -3   0   -0.28    0.90
  -7  -3   0   -0.06    0.88
   7  -3   0   -2.55    2.27
  -7  -3  -1   -0.35    0.79
   7  -3   1    2.21    2.33
  -7  -3  -1   -1.07    0.73
  -7  -3  -1    0.22    2.65
  -7   3   1   -0.28    2.69
  -7   3   1    0.17    0.81
  -7   3   1   -1.02    0.87
   7   3  -1   -2.75    2.63
  -7   3   1    0.27    0.86
  -7  -3  -1    0.36    0.93
  -7  -3  -1   -0.52    0.72
   7   3   1    1.33    0.83
  -7   3  -1   -0.15    0.95
  -7   3  -1    1.29    0.84
  -7  -3   1    2.05    0.85
  -7   3  -1   -0.55    0.74
   7   3   1   -0.43    2.33
  -7  -3   1    0.82    0.81
  -7  -3   1   -0.38    0.86
  -7   3  -1    0.14    0.82
  -7   3  -1    1.03    2.83
  -7  -3   1    2.18    2.82
  -7  -3   1    0.00    0.84
  -7   3   2    7.45    1.21
  -7   3   2    6.28    1.09
  -7   3   2    4.36    0.96
  -7  -3  -2    5.01    0.95
  -7  -3  -2    6.55    1.06
   7  -3   2    0.50    2.17
  -7   3   2    6.06    4.79
   7   3  -2    2.55    2.83
  -7   3   2    5.97    1.04
  -7  -3  -2    8.65    2.93
  -7  -3  -2    5.54    1.31
  -7  -3  -2    4.66    0.80
  -7  -3   2    5.23    1.02
  -7   3  -2    5.14    0.99
  -7  -3   2    4.75    1.07
  -7  -3   2   12.64    6.58
   7   3   2    7.60    2.70
  -7  -3   2    4.62    0.89
  -7   3  -2    3.99    0.94
  -7  -3   2    6.34    1.04
  -7   3  -2    5.93    1.00
  -7   3  -2    6.80    0.95
  -7   3  -2    7.86    2.66
  -7  -3  -3    1.35    0.67
  -7   3   3    0.52    0.86
   7  -3   3    1.94    2.67
  -7   3   3    1.97    0.76
  -7  -3  -3   -2.87    3.13
  -7   3   3    0.48    0.86
   7  -3   3    0.78    0.90
  -7   3   3    1.22    0.78
   7   3  -3    0.98    2.95
  -7  -3  -3    1.81    0.76
  -7  -3   3   -0.81    2.31
  -7   3  -3    1.86    0.87
   7   3   3    1.49    0.87
  -7   3  -3   -2.06    3.30
  -7   3  -3    1.35    0.70
  -7  -3   3    1.83    0.93
  -7  -3   3    1.45    0.84
  -7   3  -3    1.26    0.88
  -7  -3   3    1.15    0.95
  -7  -3   3    1.95    0.84
  -7  -3  -4    2.49    0.73
  -7  -3  -4    4.65    0.87
  -7   3   4    4.25    0.91
  -7   3   4    4.18    0.88
   7   3   4    3.27    0.85
  -7  -3   4    4.40    1.05
  -7   3  -4    3.94    0.88
  -7   3  -4    3.73    1.10
  -7   3  -4    4.26    0.88
  -7  -3   4    5.33    0.94
  -7  -3   4    3.78    0.89
  -7  -3  -5    1.09    0.66
  -7   3   5    0.49    0.73
  -7   3   5    1.41    0.73
  -7   3   5    1.21    0.96
  -7   3  -5    0.95    0.77
   7   3   5    1.12    0.73
  -7  -3   5    0.95    0.80
  -7  -3   5    0.78    0.82
  -7  -3   5    1.02    0.79
   7  -3   6    0.22    0.46
  -7   3   6    0.19    0.53
  -7   3   6    0.63    0.83
  -7  -3  -6    0.73    0.49
  -7   3   6    0.54    0.98
  -7   3  -6    0.63    0.47
  -7  -3   6    0.57    0.79
   7   3   6    0.44    0.54
  -7  -3   6    1.66    0.61
  -7  -3   6    0.24    0.53
   7  -3   7    3.31    0.48
  -7  -3  -7    3.26    0.48
   7   3   7    3.76    0.47
  -7  -3   7    3.13    0.52
  -7  -3   7    2.72    0.48
  -8   3   0    2.79    0.98
   8   3   0    2.38    0.88
  -8   3   0    3.55    0.95
  -8   3   0    1.53    0.86
  -8  -3   0    2.78    0.80
  -8   3   0    2.22    0.87
   8   3   0   -0.88    4.36
  -8  -3   0    6.95    3.69
   8  -3   0    1.72    3.06
  -8  -3   0    3.56    0.91
  -8  -3   0    5.03    0.96
  -8   3   1    0.25    0.80
  -8  -3  -1   -1.34    0.63
  -8  -3  -1   -0.32    0.75
  -8  -3  -1    0.49    0.84
  -8   3   1    0.80    3.90
  -8  -3  -1   -2.22    3.39
  -8   3   1    0.31    0.82
   8   3  -1   -0.82    0.82
  -8   3   1    1.03    0.91
   8  -3   1    5.69    3.12
  -8   3   1   -0.51    0.83
  -8   3  -1    0.76    0.80
  -8   3  -1    0.88    0.87
  -8   3  -1    2.84    3.61
  -8  -3   1   -3.94    4.28
  -8  -3   1    1.88    1.02
  -8  -3   1   -0.40    0.87
   8  -3  -1    1.77    4.61
  -8  -3   1   -0.07    0.88
  -8   3  -1   -0.44    0.76
  -8  -3   1   -0.91    0.78
  -8   3  -1    0.26    0.92
   8  -3   2   13.10    1.64
  -8   3   2   12.89    1.56
  -8  -3  -2   14.81    1.58
  -8   3   2   15.32    1.53
  -8   3   2   17.96    1.60
  -8  -3   2   16.18    1.59
  -8   3  -2   14.26    1.56
  -8  -3   2   12.37    1.51
  -8  -3   2   14.78    1.63
  -8  -3   2   15.33    1.60
  -8   3  -2   11.10    1.55
  -8   3  -2   15.18    1.61
  -8   3  -2   14.74    1.39
  -8  -3  -3   -0.34    0.63
  -8  -3  -3   -0.47    0.62
  -8   3   3    0.26    0.74
  -8   3   3   -0.85    0.66
  -8   3   3    0.20    1.03
  -8  -3   3    0.53    0.77
  -8   3  -3    0.68    0.74
  -8   3  -3    0.65    0.78
  -8  -3   3    0.02    0.75
   8   3   3   -0.18    0.75
  -8   3  -3   -0.28    0.66
  -8  -3   3    1.12    0.86
  -8   3   4   13.78    1.28
  -8   3   4   14.80    1.30
  -8  -3  -4   14.04    1.20
  -8   3   4   13.72    1.31
  -8  -3  -4   13.71    1.25
  -8  -3   4   15.68    1.40
  -8  -3   4   14.70    1.36
  -8   3  -4   13.67    1.23
  -8   3  -4   16.92    1.32
  -8   3  -4   14.45    1.26
   8   3   4   14.16    1.27
  -8  -3   4   13.15    1.36
  -8   3   5   -0.10    0.60
  -8   3   5    0.20    0.58
  -8  -3  -5    0.11    0.48
   8  -3   5    0.16    0.46
   8   3   5   -0.07    0.55
  -8   3  -5   -0.16    0.54
  -8  -3   5    0.70    0.56
  -8  -3   5   -0.02    0.54
  -8  -3   5   -0.09    0.50
   8  -3   6    0.29    0.30
  -8  -3  -6   -0.20    0.29
  -8   3  -6    0.49    0.32
   8   3   6   -0.49    0.36
  -8  -3   6    0.61    0.44
  -8  -3   6    0.58    0.42
  -9   3   0   -0.44    0.74
  -9  -3   0   -0.31    0.60
  -9  -3   0   -0.05    0.68
  -9   3   0    0.20    0.63
  -9   3   0   -1.11    0.68
  -9  -3   0   -0.64    0.66
  -9  -3  -1    0.33    0.55
  -9   3   1    0.05    0.67
  -9  -3  -1    0.36    0.63
  -9   3   1    0.19    0.65
  -9  -3  -1   -0.21    0.70
  -9   3   1   -0.24    0.63
  -9   3  -1    1.26    0.71
  -9  -3   1   -0.73    0.67
  -9   3  -1   -0.35    0.60
  -9  -3   1    0.07    0.60
  -9  -3   1   -0.16    0.62
  -9   3  -1    0.89    0.72
  -9   3  -1    0.25    0.59
  -9   3   2    4.14    0.82
  -9   3   2    3.48    0.78
  -9  -3  -2    4.98    0.74
  -9   3   2    4.52    0.70
   9   3  -2    3.28    0.80
  -9  -3   2    4.07    0.88
  -9  -3   2    3.40    0.71
   9   3   2    4.90    0.78
  -9  -3   2    4.50    0.75
  -9  -3   2    3.40    0.67
  -9   3  -2    4.48    0.75
  -9   3  -2    4.75    0.68
  -9   3  -2    4.98    0.68
  -9  -3  -3    0.49    0.49
  -9   3   3    0.38    0.57
  -9   3   3   -0.04    0.54
   9   3  -3   -0.11    0.75
  -9  -3   3   -1.01    0.55
  -9  -3   3   -0.48    0.57
   9   3   3    0.20    0.50
  -9  -3   3    0.26    0.56
  -9   3  -3    0.76    0.52
  -9   3  -3   -0.01    0.49
  -9   3  -3   -0.11    0.50
  -9  -3  -4    2.33    0.52
  -9  -3  -4    2.19    0.42
  -9   3   4    0.71    0.53
  -9   3   4    1.03    0.49
  -9   3  -4    1.51    0.64
  -9   3  -4    2.71    0.57
  -9  -3   4    1.58    0.66
  -9  -3   4    2.33    0.56
  -9  -3   4    2.19    0.52
   9   3   4    1.23    0.47
   9  -3   5    1.29    0.30
   9   3   5    1.49    0.33
  -9  -3   5    0.19    0.51
  -9   3  -5    1.44    0.31
 -10   3   0    0.78    0.49
 -10  -3   0    2.40    0.74
 -10   3   0    2.22    0.49
 -10   3   0    1.94    0.74
 -10  -3   0    2.68    0.74
 -10  -3   0    1.51    0.78
 -10   3   1    3.24    0.60
 -10  -3  -1    4.15    0.70
 -10   3   1    3.92    0.68
 -10   3   1    3.04    0.50
 -10   3  -1    4.60    0.62
  10   3   1    4.76    0.90
 -10  -3   1    2.75    0.49
 -10  -3   1    2.27    0.50
 -10  -3   1    3.15    0.47
 -10   3  -1    4.82    0.73
 -10   3   2    0.41    0.39
 -10   3   2    0.55    0.38
 -10  -3  -2    1.28    0.39
 -10   3  -2    1.78    0.49
  10   3   2    1.03    0.42
 -10   3  -2    1.22    0.41
 -10  -3   2    0.08    0.58
 -10  -3   2    0.88    0.41
  10  -3   3    0.41    0.27
 -10  -3   3    0.18    0.32
  10   3   3    0.03    0.31
   0   4   0  829.79   38.54
   0  -4   0  898.82   38.78
   0   4   0  799.80   38.55
   0  -4   0  827.54   38.20
   0  -4   0  875.39   39.30
   0  -4  -1    1.26    1.55
   0  -4   1   -0.14    0.49
   0   4   1   -0.07    0.51
   0  -4   1    0.73    0.67
   0   4  -1    0.43    0.57
   0   4  -1   -0.72    1.55
   0   4  -1   -0.52    0.50
   0  -4   1    2.66    1.87
   0   4   1   -0.14    0.71
   0  -4  -1    0.07    0.68
   0   4   1   -0.75    1.37
   0  -4   2  672.45   32.95
   0   4  -2  685.50   31.30
   0   4   2  685.01   31.46
   0   4   2  626.33   31.49
   0   4  -2  666.81   31.50
   0  -4   2  667.89   31.29
   0  -4   2  741.33   31.61
   0   4   2  687.43   32.36
   0  -4  -2  743.77   31.57
   0  -4  -2  669.99   32.35
   0  -4   3   -0.17    0.85
   0   4   3    0.79    1.05
   0   4  -3   -0.81    0.84
   0  -4   3    5.82    5.44
   0  -4   3   -1.29    0.95
   0   4  -3   -3.92    4.54
   0  -4  -3    0.25    1.07
   0   4  -3    0.44    1.05
   0  -4   4  649.48   29.32
   0   4   4  656.43   30.12
   0  -4   4  687.92   29.98
   0   4   4  585.80   29.27
   0   4  -4  694.28   30.54
   0   4   4  613.98   29.27
   0   4  -4  628.33   29.82
   0   4   4  637.71   29.26
   0   4   5   -0.18    0.67
   0   4   5   -1.27    1.66
   0   4   5    0.48    0.80
   0   4   5   -0.50    0.73
   0  -4   5   -0.12    1.45
   0  -4  -5   -2.30    2.03
   0   4  -5   -1.14    0.85
   0  -4   5    0.30    0.78
   0   4  -5   -1.00    1.67
   0  -4   5   -1.30    0.71
   0   4  -5   -0.66    1.98
   0   4   5   -0.50    0.70
   0  -4  -6  109.02    8.81
   0   4  -6  111.27    5.46
   0   4   6  111.44    5.51
   0   4   6  115.23    5.46
   0  -4   6  111.21    5.36
   0  -4   6  103.75    5.48
   0   4   6  115.14    5.51
   0   4   6  109.33    7.61
   0   4   6  114.46    5.45
   0  -4   6   99.10    7.21
   0   4  -6  116.09    7.81
   0  -4   6  110.08    5.49
   0   4   7    0.99    0.77
   0   4  -7    2.26    3.70
   0  -4   7   -0.41    0.94
   0   4   7   -0.16    0.79
   0  -4   7   -1.04    0.91
   0  -4  -7    2.07    2.86
   0  -4   7   -1.12    2.47
   0   4   7    0.01    0.96
   0   4  -7    0.78    0.86
   0   4   7    1.11    2.67
   0   4   7    0.22    0.84
   0   4  -8   24.06    1.71
   0  -4   8   27.54    1.88
   0   4   8   27.59    1.69
   0   4   8   28.87    1.83
   0   4   8   22.41    1.75
   0   4  -9   -0.01    0.37
   0   4  -9    0.05    0.48
   0  -4   9    0.33    0.42
   0   4   9    0.73    0.41
   0   4   9    0.55    0.33
  -1   4   0    0.98    1.34
   1  -4   0   -0.91    1.31
  -1  -4   0   -0.44    0.33
  -1  -4   0   -2.71    1.72
   1   4   0   -0.10    0.57
   1   4   0   -0.05    0.52
   1   4   0   -0.75    1.42
  -1   4   0    0.11    0.52
  -1  -4   0   -0.58    0.80
   1  -4   0    0.38    0.53
  -1   4   0    0.14    0.53
  -1   4   1  145.68    6.78
  -1   4   1  132.19    6.72
   1  -4   1  127.36    7.81
  -1  -4  -1  144.92    8.03
   1   4  -1  138.29    6.67
  -1   4   1  140.01    7.14
   1   4  -1  137.67    6.72
   1  -4   1  134.05    6.64
  -1  -4  -1  148.82    7.10
   1   4  -1  141.28    8.08
  -1   4  -1  138.12    6.51
   1   4   1  142.76    6.71
   1   4   1  138.03    6.88
   1  -4  -1  116.43    6.43
  -1  -4   1  141.41    7.03
  -1   4  -1  135.05    6.79
   1   4   1  125.36    7.54
   1  -4  -1  138.05    7.10
  -1  -4   1  139.55    8.07
  -1  -4   1  137.97    6.49
  -1   4   2    0.90    0.94
  -1   4   2    0.84    0.64
   1   4  -2    1.01    0.78
  -1   4   2   -2.36    1.41
   1   4  -2    0.31    0.78
   1  -4   2   -1.30    3.80
   1  -4   2    1.72    0.84
  -1  -4  -2   -0.76    2.64
   1   4  -2   -0.90    3.17
  -1  -4  -2    0.92    1.03
   1   4   2    0.59    0.89
  -1   4  -2    1.12    0.65
  -1  -4   2   -0.32    2.57
  -1   4  -2   -1.99    2.19
   1   4   2   -0.35    2.38
  -1   4  -2    1.40    0.87
  -1  -4   2    0.77    0.93
   1  -4  -2   -1.88    1.98
  -1  -4   2    1.03    0.69
  -1   4   3  389.07   19.11
   1   4  -3  415.84   19.68
   1   4  -3  427.04   22.42
  -1   4   3  427.46   19.74
   1  -4   3  359.89   21.75
   1  -4   3  428.26   19.58
   1   4  -3  444.87   19.63
  -1  -4  -3  372.83   19.69
  -1   4   3  410.38   19.86
  -1   4  -3  417.20   19.23
   1  -4  -3  460.21   19.55
  -1  -4   3  408.39   22.45
  -1  -4   3  433.22   19.47
  -1  -4   3  420.02   19.78
  -1   4  -3  432.30   19.98
   1   4   3  423.74   19.73
   1   4  -4   14.11    2.21
  -1   4   4    7.94    2.02
  -1   4   4    9.10    1.36
  -1   4   4    9.62    1.89
  -1   4   4    9.42    1.15
  -1   4   4   11.83    1.26
   1  -4   4   10.05    1.33
   1  -4   4    9.43    1.71
  -1  -4  -4    9.18    1.98
   1   4  -4    9.79    1.93
   1   4   4    9.76    1.25
  -1   4  -4   12.57    1.39
   1   4   4    6.90    1.71
  -1  -4   4    9.21    1.10
  -1   4  -4   11.01    2.05
   1   4   4   11.80    1.20
  -1  -4   4    9.41    1.57
   1   4   4   11.05    1.33
   1   4   4    9.63    1.11
   1   4   4   13.99    1.54
  -1  -4   4    8.71    1.17
   1   4  -5  124.94    7.65
   1   4  -5  120.68    5.92
  -1   4   5  115.98    7.25
   1   4  -5  115.26    6.91
  -1   4   5  120.54    5.86
  -1   4   5  128.18    5.93
  -1   4   5  120.08    5.94
   1  -4   5  118.50    7.06
   1  -4   5  123.78    5.91
  -1   4   5  130.54    5.90
  -1  -4   5  124.09    5.85
  -1  -4   5  124.05    5.88
  -1   4  -5  123.21    7.73
   1   4   5  124.18    5.90
  -1  -4   5   99.55    6.19
  -1  -4   5  115.19    5.95
  -1  -4   5  123.43    6.96
   1   4   5  125.11    5.89
  -1   4  -5  121.16    5.92
   1   4   5  121.08    5.88
   1   4   5  124.12    7.11
   1   4   5  125.50    5.92
   1   4  -6   11.32    2.63
  -1   4   6    7.08    1.02
   1  -4   6    7.45    1.14
  -1   4   6    7.06    1.11
   1   4  -6    5.42    1.04
  -1   4   6    6.16    0.95
   1   4  -6    8.79    3.18
  -1   4   6    5.35    0.93
   1   4   6    5.40    0.93
   1   4   6    6.85    1.03
  -1  -4   6    5.73    1.37
  -1  -4   6    7.94    0.94
  -1   4  -6    6.92    1.07
  -1  -4   6    5.38    1.07
   1   4   6    6.98    1.09
   1   4   6    6.55    0.98
  -1  -4   6    5.39    1.03
  -1  -4  -7   37.28    5.96
   1  -4   7   29.64    4.91
  -1  -4  -7   30.17    1.87
  -1   4   7   31.50    2.23
  -1   4   7   29.84    1.99
  -1   4   7   27.86    2.03
   1  -4   7   30.72    2.10
   1   4  -7   27.82    2.03
  -1   4   7   21.12    3.62
   1   4   7   25.05    3.84
   1   4   7   30.20    2.08
  -1  -4   7   33.15    2.29
  -1  -4   7   28.39    2.18
  -1   4  -7   31.75    2.07
  -1   4  -7   31.68    4.46
  -1  -4   7   28.12    4.77
   1   4   7   34.46    2.12
   1   4   7   31.83    2.00
   1   4   7   29.30    2.14
  -1   4   8    2.40    0.66
  -1   4   8    4.41    0.90
   1   4  -8    3.19    0.76
  -1   4   8    2.16    0.73
   1  -4   8    3.07    0.78
  -1   4  -8    2.11    0.66
   1   4   8    4.22    0.84
   1   4   8    2.52    0.66
  -1   4  -8    2.58    0.57
  -1  -4   8    2.64    0.90
   1   4   8    2.45    0.66
  -1  -4   8    2.69    0.71
   1   4  -9   14.93    0.90
   1  -4   9   12.76    1.19
  -1   4   9   14.15    0.96
  -1   4   9   15.64    0.98
  -1   4   9   13.19    0.99
  -1   4  -9   13.76    0.90
   1   4   9   14.15    1.00
  -1  -4   9   11.33    1.20
   1  -4  -9   13.74    0.93
  -2   4   0  242.64   10.78
   2   4   0  246.31   10.93
   2  -4   0  227.09   12.26
   2  -4   0  234.05   11.54
  -2   4   0  240.27   11.15
  -2  -4   0  219.19   11.50
  -2  -4   0  242.69   10.76
  -2  -4   0  211.98   12.29
   2  -4   0  225.96   11.00
  -2   4   0  237.53   11.34
   2   4   0  234.36   11.13
   2   4  -1    2.71    0.66
   2  -4   1    2.21    2.51
  -2  -4  -1    1.61    1.17
  -2   4   1    2.87    0.69
  -2   4   1    1.89    0.92
   2   4  -1    2.58    0.85
   2  -4   1    1.48    0.87
  -2   4   1    1.57    0.67
   2  -4   1    2.09    2.47
   2   4  -1    1.07    3.18
  -2  -4  -1    4.85    2.75
  -2  -4   1    1.55    1.17
   2   4   1   -0.25    2.21
  -2  -4   1    4.62    2.48
  -2  -4   1    2.34    0.59
   2   4   1    1.66    0.58
  -2   4  -1    1.32    0.91
   2   4   1    1.82    0.72
  -2   4  -1    2.37    0.76
   2   4   1    2.90    0.97
   2  -4   2  740.43   34.84
   2   4  -2  774.10   34.90
   2   4  -2  777.94   34.65
  -2  -4  -2  675.93   35.17
  -2  -4  -2  796.73   37.00
  -2   4   2  738.86   34.51
  -2   4   2  777.84   34.87
   2  -4   2  638.08   37.42
  -2   4   2  772.08   34.82
   2  -4   2  768.78   36.87
   2   4  -2  767.57   37.68
  -2  -4   2  799.94   36.75
  -2   4  -2  797.73   35.11
   2   4   2  775.90   34.96
  -2  -4   2  785.53   34.65
  -2  -4   2  709.41   35.21
  -2   4  -2  794.72   35.14
  -2  -4  -3    0.44    1.36
  -2  -4  -3   -1.18    1.26
   2  -4   3    1.65    1.22
  -2   4   3   -0.48    0.80
   2   4  -3   -0.24    1.12
   2   4  -3   -0.03    1.10
  -2  -4   3   -1.45    1.43
   2   4   3    0.26    1.15
  -2  -4   3    1.56    0.97
  -2   4  -3   -0.19    1.22
  -2  -4  -4  286.70   15.84
  -2   4   4  300.94   15.24
   2  -4   4  333.27   15.69
  -2   4   4  323.23   14.87
  -2   4   4  325.79   14.95
   2   4  -4  325.34   15.81
   2  -4   4  321.75   14.90
  -2   4   4  332.17   15.88
  -2   4   4  316.09   14.94
   2   4  -4  330.42   15.82
  -2   4   4  324.98   14.88
   2   4   4  349.27   15.85
  -2   4  -4  315.49   14.91
  -2   4  -4  339.74   16.35
  -2  -4   4  326.58   14.87
  -2  -4   4  325.51   14.86
   2   4   4  331.80   14.91
  -2   4  -4  325.70   14.84
   2   4   4  327.07   14.96
   2   4   4  331.81   14.91
  -2  -4   4  301.00   15.04
  -2  -4   4  327.74   15.50
   2   4   4  325.54   14.91
  -2  -4  -5    4.30    2.38
   2   4  -5    6.32    1.95
   2   4  -5    3.95    2.77
  -2   4   5    6.58    0.97
  -2   4   5    9.69    1.47
   2  -4   5    5.78    1.85
  -2   4   5    4.87    0.85
  -2   4   5    8.30    2.10
  -2   4   5    5.52    0.89
   2  -4   5    8.00    1.33
   2   4   5    8.67    2.05
   2   4   5    9.89    1.37
  -2   4  -5    7.99    1.10
   2   4   5    7.34    1.03
   2   4   5    5.58    0.91
  -2  -4   5    7.45    1.28
  -2  -4   5    5.69    1.62
  -2  -4   5    8.21    1.03
   2  -4  -5    3.18    2.71
   2   4   5    7.38    1.23
  -2  -4   5    8.54    1.17
  -2   4  -5    6.08    2.20
  -2  -4   5    7.19    1.05
  -2   4   6   86.58    4.60
  -2   4   6   87.38    4.74
   2   4  -6   95.37    6.84
  -2   4   6   99.30    6.60
   2  -4   6   93.71    4.68
   2  -4   6   84.71    6.21
  -2   4   6   93.34    4.71
  -2  -4  -6   92.65    7.33
  -2   4   6   94.94    4.68
  -2  -4  -6   88.88    4.50
   2   4   6   96.93    4.66
  -2  -4   6   89.68    6.08
  -2   4  -6   90.81    7.05
   2   4   6   91.59    4.62
   2   4   6   99.00    4.70
  -2  -4   6   95.04    4.57
   2   4   6   94.56    4.63
   2  -4  -6   80.22    8.06
   2   4   6   91.47    6.44
  -2  -4   6   90.99    4.72
  -2  -4   6   93.44    4.69
  -2   4  -6   95.50    4.70
  -2  -4   6   97.61    4.93
  -2   4   7    1.84    0.84
  -2  -4  -7    2.78    3.34
  -2   4   7    6.65    3.27
   2  -4   7    1.39    2.88
  -2   4   7    1.22    0.88
  -2  -4  -7    0.84    0.64
  -2   4   7    2.53    0.82
   2  -4   7    3.31    0.92
  -2   4   7    0.85    0.71
   2   4   7    3.14    0.76
   2   4   7    2.27    0.94
  -2   4  -7    2.49    0.85
   2   4   7    1.51    0.84
  -2  -4   7   -3.04    2.77
  -2  -4   7    1.33    0.94
  -2  -4   7    2.29    1.02
  -2  -4   7    1.37    0.88
  -2   4  -7   -3.44    3.12
   2  -4   8   27.42    1.75
  -2   4   8   29.57    1.84
  -2   4   8   30.83    1.82
  -2   4   8   29.52    1.85
   2   4   8   29.88    1.78
  -2  -4   8   28.32    2.14
   2   4   8   29.07    1.76
   2   4   8   27.57    1.81
  -2  -4   8   26.34    1.79
  -2   4  -8   29.86    1.77
  -2  -4  -9   -0.14    0.34
   2  -4   9   -0.24    0.30
  -2   4   9   -0.71    0.48
  -2   4   9   -0.01    0.29
   2   4  -9    0.04    0.33
  -2   4   9    0.37    0.34
  -2  -4   9   -0.16    0.32
  -2   4  -9    0.58    0.35
   2   4   9    0.89    0.37
  -3  -4   0   -0.61    0.62
   3  -4   0    0.98    0.92
   3   4   0   -1.77    3.20
  -3  -4   0   -4.35    3.33
   3   4   0   -0.49    0.82
   3  -4   0    0.72    1.93
  -3  -4   0    0.81    1.25
  -3   4   0   -0.19    0.73
  -3   4   0   -0.77    1.11
  -3  -4  -1  256.09   14.24
   3   4  -1  268.96   15.62
  -3   4   1  285.57   13.94
   3  -4   1  288.26   13.72
  -3   4   1  294.01   13.44
  -3   4   1  299.76   13.71
   3   4  -1  295.83   13.78
  -3  -4  -1  297.27   16.45
  -3  -4   1  253.74   14.21
   3   4   1  276.25   15.89
  -3  -4   1  290.80   13.43
  -3   4  -1  300.64   13.87
  -3   4  -1  301.17   14.18
  -3  -4   1  307.07   16.06
   3   4   1  302.33   13.82
   3   4  -2   19.86    2.32
   3  -4   2   14.88    2.09
  -3   4   2   19.38    1.93
  -3   4   2   21.79    2.00
  -3  -4  -2   19.33    2.95
  -3   4   2   17.99    2.06
  -3   4   2   13.03    1.69
  -3  -4  -2   11.78    2.53
   3   4   2   16.54    1.76
  -3   4  -2   20.72    2.73
  -3  -4   2   14.11    2.70
  -3  -4   2   16.84    1.76
  -3   4  -2   22.08    2.82
  -3  -4  -3  243.77   13.74
   3  -4   3  294.07   13.35
   3   4  -3  269.16   13.42
  -3   4   3  265.44   12.94
  -3   4   3  270.43   13.23
  -3   4  -3  300.12   12.63
   3   4   3  284.87   13.35
  -3  -4   3  270.83   12.67
  -3   4  -3  307.24   12.97
  -3   4  -3  278.78   13.81
  -3   4  -3  285.24   13.58
   3   4   3  266.87   12.55
  -3  -4   3  259.24   12.51
  -3  -4   3  283.52   13.07
  -3  -4   3  226.32   13.62
   3   4   3  259.27   12.58
  -3   4  -3  263.61   12.57
  -3   4   4    1.37    0.75
   3  -4   4    1.58    1.52
  -3  -4  -4   -0.06    1.97
  -3   4   4    3.19    1.51
  -3   4   4    1.77    0.82
  -3   4   4    0.90    1.35
  -3  -4  -4    1.96    2.39
  -3   4   4    2.10    0.85
   3   4  -4    1.43    1.59
  -3   4  -4    1.55    0.87
   3   4   4    1.96    0.76
  -3  -4   4    2.83    1.06
  -3   4  -4    0.00    0.81
  -3  -4   4    1.58    1.31
   3   4   4    2.07    1.67
  -3  -4   4    0.04    0.63
  -3  -4   4    1.60    0.95
  -3  -4   4    0.42    0.67
  -3   4  -4    0.86    0.66
  -3   4  -4    1.94    1.83
   3   4   4    1.03    0.76
   3   4   4    1.39    0.91
   3  -4   5  169.48    9.09
  -3   4   5  162.50    7.93
  -3   4   5  168.04    7.96
   3   4  -5  165.97    9.43
  -3   4   5  169.44    7.85
  -3   4   5  166.28    9.39
  -3   4   5  158.36    8.09
  -3  -4  -5  169.46    9.97
   3  -4   5  163.39    8.05
  -3  -4   5  175.34    8.13
   3   4   5  158.86    7.85
  -3   4  -5  172.35    7.91
  -3  -4   5  166.98    7.87
  -3  -4   5  140.67    8.49
   3   4   5  177.58    7.90
   3   4   5  170.59    7.88
   3   4   5  170.09    9.21
  -3  -4   5  172.03    7.85
  -3  -4   5  149.19    8.86
  -3   4  -5  171.72    9.79
  -3   4   6   -0.25    0.79
   3  -4   6   -0.47    2.32
  -3   4   6    0.39    0.87
  -3  -4  -6    0.16    2.70
  -3   4   6   -0.83    2.60
  -3  -4  -6    0.04    0.64
  -3   4   6    0.39    0.91
   3   4  -6   -2.22    2.91
  -3   4   6   -0.14    0.75
   3  -4   6   -1.07    0.82
  -3  -4   6    1.64    0.89
  -3  -4   6    5.85    2.33
  -3  -4   6   -0.56    0.70
  -3  -4   6    0.12    1.02
   3   4   6    0.85    3.44
  -3  -4   6    0.69    1.12
   3   4   6    1.09    0.77
   3   4   6   -0.60    0.82
  -3   4  -6   -0.90    0.88
   3  -4  -6    3.33    5.69
  -3   4  -6    3.90    2.63
  -3   4  -6   -0.77    0.82
  -3   4   7   18.72    1.92
  -3   4   7   20.71    1.95
  -3  -4  -7   14.95    1.69
   3  -4   7   21.23    1.74
  -3  -4   7   22.46    1.93
  -3  -4   7   17.42    1.76
   3   4   7   16.30    1.94
   3   4   7   19.98    1.58
  -3  -4   7   21.63    2.42
  -3   4  -7   17.81    1.57
   3  -4   8    0.30    0.52
  -3   4   8    0.20    0.53
  -3   4   8   -0.93    0.56
  -3  -4  -8   -0.29    0.65
  -3   4   8    0.66    0.61
  -3  -4   8   -0.48    0.67
   3   4   8    0.25    0.56
  -3   4  -8    0.45    0.55
  -3  -4   8    1.14    0.73
  -3  -4   8    0.98    0.63
   3  -4   9   18.62    1.04
  -3   4   9   20.36    1.11
   3   4  -9   20.17    1.09
  -3  -4  -9   18.86    1.05
  -3   4  -9   19.82    1.04
  -3  -4   9   19.78    1.07
   3   4   9   20.34    1.06
   4  -4   0  205.04   11.72
  -4   4   0  242.02   11.92
  -4  -4   0  216.77   12.07
   4   4   0  247.24   11.35
  -4   4   0  238.36   11.28
   4   4  -1    2.19    1.15
  -4   4   1   -0.57    1.30
  -4   4   1    0.91    0.99
   4  -4   1    2.31    1.20
  -4  -4  -1    0.46    1.65
   4   4   1    1.32    1.15
  -4   4  -1    0.79    1.67
  -4  -4   1   -0.46    1.62
  -4  -4   1    0.13    0.84
  -4  -4  -2  137.56    7.16
  -4  -4  -2  144.90    8.07
   4  -4   2  159.47    7.85
   4   4  -2  153.79    7.95
  -4  -4  -2  145.10    8.59
  -4   4   2  150.16    7.93
  -4   4  -2  153.60    6.98
  -4   4  -2  159.43    8.12
   4   4   2  143.52    7.85
  -4   4  -2  147.38    7.04
  -4   4  -2  155.22    8.39
  -4  -4   2  153.44    7.10
  -4  -4   2  157.61    7.51
   4   4   2  155.09    7.94
  -4   4  -2  138.34    7.06
   4   4   2  139.29    7.03
  -4   4  -2  148.70    7.34
  -4  -4   2  145.63    6.96
  -4  -4   2  133.34    8.40
  -4   4   3    3.37    1.05
  -4   4   3    0.98    0.86
   4  -4   3    0.39    1.30
  -4   4   3    0.92    0.85
  -4   4   3    1.97    0.84
   4   4  -3    1.48    1.62
  -4   4   3   -0.98    1.26
  -4  -4  -3    2.71    2.03
  -4  -4  -3    0.88    0.99
  -4  -4   3    3.14    1.23
  -4  -4   3    1.40    0.62
  -4  -4   3    0.17    0.84
  -4   4  -3    1.10    1.57
  -4   4  -3    1.83    0.72
  -4   4  -3    0.62    0.83
  -4  -4   3    1.01    0.67
   4   4   3    1.54    0.69
  -4   4  -3    1.56    0.97
  -4   4  -3    0.87    0.75
   4   4   3    1.83    0.74
  -4  -4   3    1.71    0.90
   4   4   3    2.13    1.39
  -4  -4   3    1.12    2.16
  -4   4  -3    0.86    1.70
  -4   4   4  215.06   10.37
  -4  -4  -4  233.22   11.93
   4  -4   4  227.37   11.41
  -4   4   4  198.24   11.05
   4   4  -4  226.37   11.67
  -4   4   4  226.97   10.34
  -4  -4  -4  224.96   12.27
  -4   4   4  228.02   10.28
  -4   4  -4  231.24   11.99
  -4  -4   4  218.29   11.25
  -4  -4   4  212.08   10.45
  -4  -4   4  212.86   10.46
   4   4   4  215.51   10.30
   4   4   4  221.83   11.51
  -4   4  -4  221.96   10.36
   4   4   4  209.79   10.51
  -4   4  -4  223.56   10.30
  -4   4  -4  233.46   10.28
  -4  -4   4  218.74   10.30
   4  -4   5   10.83    1.51
  -4   4   5   13.72    1.41
  -4   4   5   11.30    1.54
  -4   4   5   11.88    1.55
  -4   4   5   14.56    1.59
   4  -4   5   13.40    2.53
  -4  -4  -5   13.07    1.36
  -4  -4   5   13.84    1.91
  -4  -4   5   14.90    1.53
  -4  -4   5   13.31    1.55
  -4  -4   5   10.33    2.38
   4   4   5   13.54    1.46
   4   4   5   13.28    1.44
   4  -4  -5   12.34    7.01
  -4  -4   5   15.45    1.65
  -4   4  -5   15.02    1.59
  -4   4  -5   14.90    1.54
  -4   4  -5   11.90    2.78
  -4   4   6   50.81    2.69
  -4  -4  -6   46.19    2.57
  -4   4   6   48.01    2.76
   4  -4   6   47.55    2.70
  -4   4   6   43.41    2.85
  -4  -4  -6   44.58    8.00
   4   4  -6   44.85    6.05
   4  -4   6   38.90    4.97
   4   4   6   46.37    2.64
  -4   4  -6   48.27    2.68
  -4   4  -6   47.68    2.62
  -4  -4   6   46.64    2.81
  -4  -4   6   50.66    2.68
  -4   4  -6   40.27    5.69
  -4  -4   6   38.95    5.11
  -4  -4   6   49.14    3.06
  -4  -4   6   48.20    2.79
   4   4   6   47.20    2.65
   4  -4   7    2.60    0.70
  -4   4   7    1.99    0.77
  -4   4   7    3.37    0.88
  -4   4   7    3.51    0.86
  -4  -4  -7    2.06    0.61
  -4  -4   7    2.66    0.77
  -4  -4   7    3.28    0.94
  -4  -4   7   -0.07    0.94
  -4  -4   7    0.56    0.85
   4   4   7    1.96    0.69
  -4   4  -7    1.02    0.68
   4   4   7    1.58    0.84
  -4   4   8   19.26    1.23
   4   4  -8   20.03    1.23
  -4   4   8   17.68    1.21
  -4   4   8   18.44    1.27
   4  -4   8   16.54    1.13
  -4  -4  -8   18.70    1.13
  -4  -4  -8   14.65    1.29
  -4  -4   8   17.56    1.21
   4   4   8   17.48    1.17
  -4   4  -8   19.38    1.14
  -4  -4   8   18.67    1.41
  -5  -4   0    0.16    1.83
  -5   4   0    0.40    0.68
  -5   4   0   -0.95    0.71
   5  -4   0    2.06    1.48
  -5   4   0   -1.30    1.30
  -5   4   0    1.84    0.72
  -5   4   0   -0.55    1.70
  -5  -4   0   -0.74    0.87
  -5  -4   0   -0.85    0.67
  -5   4   0    0.15    0.66
   5   4   0   -1.58    1.39
  -5  -4   0    0.38    0.75
  -5   4   1  185.06    9.79
   5   4  -1  207.34   10.06
  -5   4   1  185.42    9.03
  -5  -4  -1  182.82    9.07
   5  -4   1  202.70   10.08
  -5  -4  -1  200.35   10.99
  -5   4   1  196.95    9.12
  -5  -4  -1  196.78    9.25
  -5   4   1  200.60   10.62
  -5   4   1  192.68    9.14
  -5  -4  -1  189.46    9.09
  -5   4   1  187.56    9.17
  -5  -4   1  193.15   10.95
  -5  -4   1  197.60    9.07
   5   4   1  197.97    9.15
  -5  -4   1  188.31    9.22
  -5   4  -1  201.23    9.11
  -5   4  -1  199.36    9.11
  -5  -4   1  193.11    9.27
  -5   4  -1  176.84    9.17
  -5  -4   1  207.16    9.15
  -5   4  -1  191.33    9.12
   5   4   1  209.32   10.15
  -5   4  -1  197.60   10.04
  -5   4  -1  190.97   10.77
  -5  -4   1  193.46    9.72
   5   4   1  207.52    9.73
  -5  -4  -2    5.55    0.97
  -5   4   2    8.24    2.25
  -5  -4  -2    5.08    0.78
  -5   4   2    3.14    1.77
  -5   4   2    5.80    0.93
  -5   4   2    4.60    0.85
   5  -4   2    4.52    1.71
  -5   4   2    5.89    0.81
  -5   4   2    6.44    0.88
   5   4  -2    2.56    1.83
  -5  -4  -2    3.26    2.21
  -5   4  -2    3.53    0.86
  -5  -4   2    5.07    2.35
  -5   4  -2    4.46    0.88
  -5   4  -2    4.23    0.91
   5   4   2    5.07    0.91
  -5  -4   2    5.38    0.97
  -5   4  -2    3.52    2.06
   5   4   2    3.31    1.55
  -5   4  -2    5.29    0.99
  -5   4  -2    5.56    0.82
  -5  -4   2    6.16    0.98
  -5  -4   2    6.31    1.50
   5   4   2    6.08    3.13
  -5   4  -2    4.28    1.75
  -5  -4   2    4.82    0.78
  -5  -4   2    5.95    1.05
  -5  -4   2    6.42    0.91
  -5  -4  -3  262.65   10.98
  -5   4   3  244.60   10.88
   5  -4   3  246.06   12.05
   5   4  -3  216.72   10.86
  -5   4   3  221.42   10.87
  -5   4   3  223.53   10.93
   5   4  -3  230.53   12.23
  -5  -4  -3  254.40   12.93
   5   4   3  239.12   12.03
  -5   4  -3  250.72   10.94
  -5  -4   3  235.02   10.89
  -5   4  -3  235.30   12.39
  -5  -4   3  220.40   12.62
  -5  -4   3  244.87   11.77
  -5  -4   3  247.46   10.95
  -5  -4   3  201.30   11.23
  -5   4  -3  231.83   11.18
   5   4   3  226.68   10.92
  -5   4  -3  250.01   12.61
  -5   4  -3  214.49   11.31
  -5   4  -3  227.86   10.97
  -5  -4  -4   -1.07    3.20
  -5   4   4    0.01    0.70
  -5  -4  -4    0.21    0.78
  -5   4   4    0.15    0.76
  -5  -4  -4    0.38    0.78
  -5   4   4    2.73    0.84
  -5  -4   4    1.29    0.83
   5   4   4    0.22    0.79
  -5   4  -4    0.91    0.91
  -5   4  -4    0.21    0.85
  -5  -4   4    1.18    0.81
   5   4   4    0.53    1.17
  -5  -4   4   -0.26    1.01
   5   4   4    2.88    2.59
  -5   4  -4    4.08    2.52
  -5  -4   4    1.10    0.88
  -5   4  -4   -0.28    0.72
  -5   4  -4    2.42    2.94
  -5   4  -4   -0.88    0.90
   5  -4   5   68.90    5.90
  -5   4   5   76.72    4.00
  -5   4   5   75.66    3.96
  -5   4   5   78.19    3.98
   5  -4   5   78.92    4.01
  -5   4   5   75.85    4.00
  -5  -4  -5   79.13    3.93
   5   4  -5   77.34    6.67
  -5  -4   5   71.01    5.72
   5   4   5   79.00    4.01
  -5   4  -5   85.36    4.00
  -5  -4   5   75.90    3.99
  -5  -4   5   85.28    4.32
  -5  -4   5   80.55    4.05
   5   4   5   72.47    3.93
  -5   4  -5   80.10    3.89
  -5   4  -5   68.57    6.52
  -5  -4   5   81.11    4.00
  -5   4  -5   78.66    3.97
  -5   4   6    5.45    0.88
  -5   4   6    4.28    0.87
   5  -4   6    6.49    1.40
  -5   4   6    6.90    1.29
  -5  -4  -6    5.81    1.15
  -5   4  -6    3.05    0.82
  -5  -4   6    6.05    1.49
  -5  -4   6    5.21    0.85
  -5  -4   6    4.39    1.01
  -5   4   7   33.76    1.97
  -5  -4  -7   34.83    1.90
  -5  -4  -7   34.53    1.85
   5  -4   7   36.36    1.97
  -5   4   7   34.00    1.99
  -5   4   7   34.31    2.04
   5   4  -7   33.98    2.00
  -5   4  -7   36.35    1.92
  -5  -4   7   35.67    2.03
  -5  -4   7   31.93    2.46
  -5   4  -7   35.78    1.97
   5   4   7   32.42    1.94
  -5  -4   7   37.20    2.23
  -5   4   8    0.80    0.44
   5  -4   8    0.84    0.32
  -5  -4  -8    0.19    0.41
   5   4  -8    0.08    0.46
  -5   4  -8    1.14    0.37
  -5  -4   8    0.90    0.37
   5   4   8    0.21    0.37
   6   4   0   69.93    5.23
   6  -4   0   77.64    5.46
  -6  -4   0   74.92    3.77
  -6   4   0   70.58    3.82
  -6   4   0   87.72    4.22
  -6   4   0   76.64    4.59
  -6  -4   0   61.73    4.50
  -6   4   0   76.45    6.17
  -6  -4   0   80.52    6.50
  -6  -4   0   75.28    3.92
  -6  -4  -1   14.23    1.44
   6   4  -1   15.33    2.45
  -6   4   1   16.70    1.55
  -6  -4  -1   17.09    1.63
  -6   4   1   12.67    2.83
  -6  -4  -1   16.37    1.49
   6  -4   1   12.95    2.52
  -6   4   1   16.49    1.64
  -6   4   1   17.38    2.23
  -6   4   1   15.35    1.35
  -6  -4  -1   15.61    3.15
  -6  -4   1   21.38    4.37
  -6   4  -1   15.19    1.53
  -6  -4   1   13.13    1.39
  -6   4  -1   14.93    1.60
  -6   4  -1   18.66    1.74
  -6  -4   1   15.63    1.60
  -6   4  -1   16.52    1.48
   6   4   1   17.77    3.18
  -6   4  -1   13.29    2.90
  -6  -4   1   14.65    1.52
   6   4   1   14.96    2.71
  -6  -4   1   14.31    1.62
  -6  -4  -2  101.88    4.88
  -6   4   2   94.44    4.83
   6   4  -2   89.00    6.31
  -6   4   2   90.24    6.58
  -6  -4  -2  114.14    7.51
  -6   4   2   93.54    4.80
  -6   4   2   91.77    4.79
   6  -4   2   92.50    6.24
  -6  -4  -2   95.80    4.69
  -6   4   2   95.38    4.82
  -6   4  -2  104.50    7.08
   6   4   2   92.29    6.49
  -6  -4   2   88.65    5.94
  -6   4  -2  101.78    4.86
  -6  -4   2  108.39    7.86
  -6  -4   2   97.15    4.77
  -6   4  -2   98.57    5.02
  -6  -4   2   91.88    4.86
  -6  -4   2   94.87    4.75
  -6  -4   2   98.92    4.84
  -6   4  -2   99.05    4.86
  -6   4  -2   98.05    4.75
   6   4  -3   -2.48    3.75
  -6  -4  -3    0.01    0.69
  -6   4   3    1.50    0.80
  -6  -4  -3    1.77    2.70
  -6   4   3    0.33    0.78
   6  -4   3    1.92    2.15
  -6   4   3    1.58    0.93
  -6   4   3    1.00    0.77
  -6  -4  -3    1.50    0.76
  -6   4  -3    0.92    0.82
  -6   4  -3    2.14    2.76
  -6  -4   3    0.47    0.85
   6   4   3    1.24    0.87
  -6  -4   3   -0.09    0.86
   6   4   3   -5.25    4.12
  -6  -4   3    0.04    0.76
  -6   4  -3    1.29    0.91
  -6   4  -3    0.05    0.91
  -6   4  -3    0.98    0.75
  -6  -4   3    1.10    0.78
  -6  -4   3   -0.15    1.93
   6   4   3   -0.06    0.81
  -6   4   4   57.93    3.24
  -6   4   4   58.08    3.29
  -6   4   4   62.79    3.27
  -6  -4  -4   62.60    3.29
   6  -4   4   55.43    5.68
   6   4  -4   62.89    5.98
  -6  -4  -4   65.80    3.27
  -6  -4  -4   69.38    8.17
  -6   4  -4   53.55    7.48
  -6  -4   4   63.66    3.34
  -6  -4   4   64.67    3.53
  -6  -4   4   61.17    3.41
  -6   4  -4   62.52    3.40
  -6   4  -4   63.52    3.36
  -6  -4   4   62.20    3.35
  -6   4  -4   63.90    3.21
   6   4   4   58.77    3.30
  -6  -4   4   56.17    5.29
   6   4   4   64.94    3.33
  -6   4  -4   65.22    3.27
  -6   4   5    3.42    0.78
   6   4  -5    2.71    0.91
   6  -4   5    2.74    0.80
  -6   4   5    3.19    1.07
  -6  -4  -5    1.57    0.75
  -6   4  -5    0.59    0.84
  -6  -4   5    2.21    0.99
  -6  -4   5    2.11    0.91
  -6   4  -5    1.40    1.08
  -6  -4   5    0.85    0.91
  -6  -4   5    2.82    0.81
   6   4   5    2.32    0.90
  -6  -4  -6   29.62    1.76
  -6   4   6   29.96    1.80
  -6   4   6   27.55    1.80
   6  -4   6   29.54    1.81
   6   4  -6   28.47    1.90
  -6  -4   6   28.56    1.93
  -6   4  -6   27.76    1.78
  -6   4  -6   31.25    1.74
  -6  -4   6   28.88    1.89
   6   4   6   28.39    1.76
  -6  -4   6   30.70    1.80
   6  -4   7    1.22    0.42
  -6  -4  -7    0.72    0.38
  -6   4   7    0.28    0.49
  -6   4   7   -0.17    0.51
  -6  -4   7    0.41    0.58
   6   4   7    0.75    0.45
  -6   4  -7    1.98    1.01
  -6  -4   7    1.34    0.57
  -6   4  -7    0.45    0.38
  -7   4   0   -0.51    2.69
  -7  -4   0   -0.47    0.72
   7   4   0   -1.08    2.49
  -7  -4   0   -0.61    0.90
  -7   4   0    0.48    0.91
  -7   4   0   -0.52    0.83
  -7  -4   0   -0.12    0.92
  -7  -4   0    2.70    2.84
   7  -4   0    1.06    2.72
   7   4   0   -0.71    2.72
  -7  -4   0   -0.59    0.83
   7   4   0    0.65    0.82
  -7   4   0    0.36    0.74
  -7   4   0    0.46    0.86
  -7  -4  -1  121.97    5.79
  -7  -4  -1  113.99    5.88
  -7   4   1  107.33    8.59
  -7   4   1  115.31    5.86
  -7  -4  -1  133.01    5.97
   7  -4   1  130.31    8.02
  -7   4   1  119.15    5.94
  -7  -4  -1  146.21    9.21
  -7   4   1  114.78    5.75
   7   4  -1  113.49    9.33
  -7   4   1  113.43    5.88
  -7   4  -1  116.92    5.87
  -7   4  -1  120.86    5.85
  -7  -4   1  126.64    9.17
   7  -4  -1  120.67    8.16
   7   4   1  109.17    8.29
  -7  -4   1  122.01    5.87
   7   4   1  114.70    5.84
  -7   4  -1  121.96    5.91
  -7  -4   1  119.31    5.93
  -7   4  -1  123.52    8.74
  -7   4  -1  125.69    5.99
  -7  -4   1  129.82    5.94
  -7  -4   1  117.89    5.82
  -7   4   2    1.07    0.88
  -7   4   2    1.11    0.82
  -7   4   2    1.69    0.82
   7  -4   2    2.41    2.66
  -7  -4  -2    2.84    0.96
  -7  -4  -2   -5.59    3.23
  -7   4   2   -4.52    3.60
  -7  -4  -2    2.03    0.68
  -7   4   2    2.02    0.84
  -7   4  -2    2.70    0.92
  -7  -4   2    1.04    0.74
  -7   4  -2    0.64    0.90
  -7  -4   2    1.67    0.82
  -7   4  -2    1.11    2.89
  -7   4  -2    1.53    0.83
  -7  -4   2    1.18    0.79
  -7  -4   2    2.27    0.98
  -7  -4   2   -4.01    3.82
  -7   4  -2    1.94    0.84
   7   4   2    1.30    0.81
   7  -4   3   74.85    5.96
  -7  -4  -3   71.73    3.57
   7   4  -3   65.64    6.51
  -7   4   3   60.10    3.44
  -7  -4  -3   67.79    3.44
  -7   4   3   69.34    3.59
  -7   4   3   66.73    3.55
  -7  -4  -3   58.96    8.01
  -7   4   3   68.38    3.58
  -7   4  -3   68.63    3.48
   7   4   3   80.95    4.13
  -7   4  -3   67.13    3.55
  -7   4  -3   69.67    3.60
   7   4   3   69.54    3.59
  -7   4  -3   59.61    7.89
  -7  -4   3   65.23    3.60
  -7  -4   3   66.90    3.58
  -7  -4   3   73.69    3.58
  -7  -4   3   58.13    3.51
  -7   4   4    2.89    0.79
  -7   4   4    1.99    0.78
  -7   4   4    3.40    0.93
  -7  -4  -4    2.16    0.74
  -7  -4   4    1.21    1.42
  -7   4  -4    2.18    0.73
  -7   4  -4    2.19    0.67
   7   4   4    3.10    1.15
  -7   4   5   52.61    2.86
  -7  -4  -5   59.36    2.86
   7  -4   5   57.07    2.91
  -7   4   5   55.54    2.96
  -7   4  -5   53.64    2.92
   7   4   5   55.67    2.89
  -7  -4   5   57.47    2.96
  -7  -4   5   58.89    2.96
  -7  -4   5   54.33    2.97
   7  -4   6    1.46    0.48
  -7  -4  -6    2.82    0.48
  -7   4   6    2.06    0.54
  -7  -4   6    1.96    0.77
  -7  -4   6    2.53    0.57
   7   4   6    1.61    0.49
  -7  -4   6    1.16    0.59
  -7  -4  -7   12.22    0.73
   7  -4   7   11.97    0.73
  -7  -4   7   14.47    0.87
  -8   4   0   46.22    2.70
  -8  -4   0   45.55    2.60
  -8   4   0   40.12    2.77
  -8   4   0   43.49    2.52
  -8  -4   0   44.30    2.47
  -8   4   0   45.82    2.61
   8   4   0   39.63    2.68
  -8   4   1    0.78    0.82
  -8   4   1    1.42    0.83
   8   4  -1    0.25    1.03
  -8  -4  -1    0.33    0.73
  -8   4   1    0.32    0.81
  -8  -4  -1    0.30    0.91
  -8  -4  -1    0.65    0.91
   8   4   1   -1.19    0.94
  -8  -4   1   -0.88    0.89
  -8   4  -1   -0.33    0.83
  -8  -4   1   -0.45    0.69
  -8  -4   1    0.43    1.41
  -8   4  -1   -0.61    0.71
  -8   4  -1   -0.39    0.77
  -8   4  -1   -1.11    0.84
  -8  -4   1   -0.61    0.79
  -8   4   2   46.00    2.56
  -8   4   2   43.17    2.55
  -8  -4  -2   40.22    2.32
  -8   4   2   39.70    2.45
  -8   4  -2   48.40    2.70
  -8  -4   2   44.83    2.60
  -8  -4   2   46.85    2.46
  -8  -4  -3    0.37    0.62
  -8   4   3   -0.25    0.68
  -8   4   3    0.92    0.71
  -8   4   3   -0.04    0.69
  -8  -4  -3    0.59    0.56
  -8   4  -3    0.35    0.59
  -8   4  -3   -0.05    0.64
  -8  -4   3    0.77    0.78
  -8  -4   3   -0.43    0.73
   8   4   3   -0.36    0.64
  -8   4  -3    0.39    0.73
  -8  -4   3    0.66    0.73
  -8  -4  -4   26.64    1.50
  -8   4   4   24.52    1.54
  -8   4   4   25.68    1.63
  -8   4   4   23.36    1.57
  -8  -4  -4   25.25    1.72
  -8   4  -4   25.37    1.49
  -8   4  -4   24.92    1.63
  -8  -4   4   25.53    1.68
   8   4   4   25.12    1.65
  -8  -4   4   26.84    1.67
  -8   4  -4   23.87    1.64
  -8  -4   4   24.12    1.64
   8  -4   5    1.39    0.43
  -8  -4  -5    1.71    0.44
  -8  -4   5    1.22    0.60
  -8  -4   5    2.77    0.54
  -8  -4   5    2.94    0.58
  -8   4  -5    2.38    0.51
  -8  -4  -6   10.56    0.68
   8   4  -6   12.02    0.84
   8  -4   6   11.62    0.70
   8   4   6   11.35    0.73
  -8   4  -6   12.37    0.79
  -9  -4   0    0.59    0.62
  -9   4   0    0.14    0.62
  -9   4   0   -0.03    0.58
  -9  -4   0   -0.33    0.78
  -9   4   0   -0.06    0.63
  -9  -4   0   -0.11    0.57
   9   4  -1   33.79    2.01
  -9   4   1   32.86    1.91
  -9   4   1   32.92    1.99
  -9  -4  -1   36.24    1.97
  -9   4   1   31.46    2.06
  -9  -4  -1   28.99    1.94
  -9   4  -1   34.00    1.90
  -9   4  -1   33.21    1.97
  -9  -4   1   30.87    1.95
  -9  -4   1   36.61    1.95
  -9   4  -1   33.64    1.99
  -9   4  -1   32.51    1.83
  -9  -4   1   31.64    1.89
  -9  -4  -2    1.28    0.56
  -9   4   2   -0.99    0.54
   9   4  -2   -0.92    0.67
  -9   4   2   -0.07    0.54
  -9   4   2   -0.69    0.56
  -9  -4   2    0.63    0.66
  -9   4  -2    0.63    0.52
   9   4   2   -0.13    0.56
  -9  -4   2    0.03    0.52
  -9   4  -2   -0.61    0.52
  -9  -4   2    0.60    0.56
  -9   4  -2    0.35    0.53
  -9   4   3   37.97    2.26
  -9  -4  -3   33.74    1.83
  -9   4  -3   34.46    1.85
  -9  -4   3   32.29    1.85
  -9   4  -3   34.32    1.89
   9   4   3   35.20    1.90
  -9  -4   3   38.11    2.35
  -9   4  -3   34.27    1.85
   9   4  -4    2.79    0.55
   9  -4   4    1.76    0.43
   9   4   4    2.45    0.43
  -9  -4   4    0.93    0.44
  -9   4  -4    3.97    0.59
  -9  -4   4    2.05    0.53
 -10   4   0   20.35    1.20
 -10   4   0   20.70    1.16
 -10  -4   0   20.06    1.18
  10   4   0   18.52    1.23
 -10   4   1    0.69    0.40
 -10   4   1    0.45    0.30
 -10  -4  -1    1.24    0.39
 -10   4   1    1.88    0.42
 -10   4  -1    1.03    0.38
 -10  -4   1    1.86    0.44
 -10   4  -1   -0.04    0.37
 -10  -4   1    0.96    0.45
  10   4   1    0.06    0.39
 -10   4   2   13.62    0.88
 -10  -4  -2   14.69    0.87
 -10   4  -2   14.75    0.90
 -10  -4   2   13.58    0.87
 -10   4  -2   16.22    0.92
  10   4   2   14.41    0.98
   0  -5   0   -0.04    0.82
   0  -5   0    0.24    0.42
   0   5   0    0.57    0.69
   0  -5   0    1.53    2.24
   0   5   0    0.67    0.82
   0  -5   1  623.63   30.87
   0  -5   1  636.00   29.16
   0  -5  -1  702.36   29.76
   0  -5   1  681.78   29.77
   0  -5  -1  645.26   30.45
   0   5   1  595.79   29.52
   0   5  -1  634.72   30.88
   0   5   1  645.42   29.46
   0   5  -1  638.49   29.48
   0   5   1  623.82   30.31
   0   5  -1  615.69   29.39
   0  -5   2    1.26    4.31
   0  -5   2   -1.25    0.97
   0   5  -2    0.41    0.85
   0  -5  -2   -0.55    0.95
   0  -5   2    0.78    0.79
   0   5  -2   -0.43    0.78
   0   5   2   -0.07    0.81
   0   5   2   -0.99    0.88
   0  -5   3    1.30    1.13
   0   5  -3   -0.21    1.11
   0   5  -3    3.52    2.10
   0  -5  -3   -0.17    1.28
   0  -5   3   -0.48    1.24
   0   5   3    1.32    1.16
   0   5   4   -0.65    1.46
   0   5   4    0.96    0.72
   0   5  -4   -0.40    0.85
   0   5  -4   -1.26    1.55
   0   5  -4    2.16    1.51
   0   5   4   -1.41    0.79
   0  -5   4   -0.95    1.33
   0  -5   4    0.56    0.76
   0   5   4    0.53    0.68
   0   5   4    0.57    0.56
   0   5   5   -0.03    1.18
   0   5   5   -0.28    1.73
   0   5  -5    0.12    2.45
   0   5   5    1.16    0.84
   0   5   5    1.05    0.65
   0   5   5    0.14    0.79
   0  -5  -5   -1.15    2.48
   0  -5   5    0.99    0.73
   0  -5   5   -0.46    1.79
   0  -5   5    0.89    0.89
   0   5  -5   -0.41    0.90
   0   5   6    0.25    0.88
   0   5  -6    1.43    0.94
   0  -5   6    4.58    2.37
   0   5   6   -0.19    0.79
   0   5   6    0.49    0.94
   0  -5   6    0.67    0.90
   0   5  -6   -0.04    3.02
   0  -5  -6   -2.29    2.81
   0  -5   6    1.23    0.82
   0   5   6    1.15    0.90
   0  -5   7   21.20    1.85
   0  -5  -7   12.85    5.93
   0   5  -7   19.17    1.70
   0   5   7   23.50    1.89
   0   5   7   23.13    1.75
   0   5   7   21.61    1.79
   0   5   7   21.59    1.73
   0   5  -8   -0.46    0.51
   0   5   8    0.23    0.55
   0   5   8   -0.51    0.67
   0   5   8    0.84    0.57
   0   5  -8    1.06    0.62
   0  -5   8    0.39    0.62
   0  -5   9    0.26    0.27
   0   5   9    0.14    0.36
   0   5   9   -0.07    0.27
   0   5   9   -0.24    0.35
  -1   5   0    0.30    0.68
  -1  -5   0   -0.37    0.67
   1  -5   0   -0.71    1.27
  -1   5   0   -1.02    2.04
  -1  -5   0    3.03    2.92
  -1  -5   0    0.17    1.05
   1   5   0   -0.09    0.65
   1  -5   0   -2.02    2.20
  -1   5   0   -0.05    0.76
   1   5   0   -0.11    0.84
   1   5   0   -0.24    2.41
   1  -5   1   96.99    4.89
   1   5  -1   91.45    7.36
   1  -5   1   95.56    7.36
   1   5  -1   96.61    5.08
  -1   5   1   96.26    5.05
   1   5  -1   93.03    5.10
  -1   5   1   95.66    5.97
  -1  -5  -1  104.19    5.51
  -1   5   1  102.91    5.12
  -1  -5  -1   87.11    8.37
   1   5   1   97.11    5.02
   1  -5  -1   93.14    6.02
  -1  -5   1   95.57    4.72
  -1   5  -1   94.24    5.17
  -1   5  -1   97.20    4.84
   1   5   1   97.87    5.28
  -1  -5   1  102.33    5.53
  -1  -5   1   96.45    7.40
   1   5   1   85.87    6.53
   1  -5   2  116.24    6.28
   1   5  -2  122.24    9.57
  -1   5   2  123.08    6.49
  -1   5   2  121.09    7.06
   1   5  -2  115.64    6.34
  -1  -5  -2  124.07    6.74
   1   5  -2  120.75    6.37
  -1   5   2  129.55    6.47
  -1  -5   2  125.28    6.77
   1   5   2  127.78    6.57
   1   5   2  119.98    6.36
   1  -5  -2  120.62    8.04
  -1  -5   2  124.71   10.12
   1  -5  -2  138.22    6.64
  -1  -5   2  120.50    6.11
  -1   5  -2  123.67    6.61
   1   5  -3    1.72    1.16
   1  -5   3   -0.64    1.23
   1  -5   3    2.58    1.23
  -1   5   3    0.50    1.11
  -1  -5  -3    0.58    1.44
   1   5  -3    2.13    1.22
  -1  -5   3    1.11    1.87
  -1  -5   3   -1.08    1.42
   1   5   3    2.43    1.20
   1  -5  -3    1.37    1.21
  -1   5  -3    1.09    1.35
   1  -5   4   13.94    1.43
   1   5  -4   13.94    2.25
  -1   5   4   15.01    1.56
  -1   5   4   14.62    1.21
   1   5  -4   14.37    2.69
  -1   5   4   15.80    1.31
  -1  -5  -4    9.73    2.60
   1   5  -4   16.30    1.72
  -1   5   4   13.20    1.50
  -1   5   4   17.15    2.55
  -1   5   4   16.13    1.42
   1  -5   4   16.82    2.51
  -1  -5   4   14.43    2.05
   1   5   4   14.81    1.48
  -1   5  -4   15.45    1.51
   1   5   4   13.41    2.20
   1   5   4   14.51    1.28
   1   5   4   13.62    1.54
   1   5   4   16.90    1.43
  -1   5  -4   12.65    2.43
   1   5   4   14.24    1.36
  -1  -5   4   14.58    1.42
  -1  -5   4   14.24    1.33
  -1   5   5    9.63    1.64
  -1   5   5    7.73    2.09
  -1   5   5   11.06    1.38
  -1   5   5    9.05    1.81
  -1   5   5    8.06    1.16
   1   5  -5    7.85    2.64
   1  -5   5    7.97    2.07
  -1  -5  -5    5.20    2.42
   1   5  -5    8.22    1.15
   1   5  -5    8.17    2.23
  -1  -5   5    9.94    2.08
   1   5   5    9.78    2.28
  -1   5  -5    9.65    2.61
   1   5   5   10.70    1.36
  -1  -5   5   11.89    1.27
   1  -5  -5    4.83    2.60
  -1   5   6    8.79    1.16
   1   5  -6    6.90    1.07
  -1  -5  -6    2.10    3.10
  -1   5   6    7.91    2.63
   1   5  -6    5.97    3.91
  -1   5   6    6.53    1.02
   1  -5   6    9.98    1.55
   1  -5   6    9.00    1.23
  -1   5   6   10.88    1.19
   1  -5   6   10.11    2.78
  -1   5   6    8.92    1.27
   1   5   6    8.96    1.41
   1   5   6    8.19    1.04
   1  -5  -6    2.26    3.47
  -1  -5   6    8.10    1.13
  -1  -5   6    8.12    2.34
  -1  -5   6    8.85    1.32
  -1   5  -6    9.13    3.13
   1   5   6    7.82    1.10
   1   5   6    6.69    1.08
   1   5   6   12.64    2.55
  -1   5  -6    8.38    1.14
  -1   5   7    4.89    0.90
  -1   5   7    4.43    1.03
  -1   5   7    3.69    0.90
  -1   5   7    4.42    0.89
   1  -5   7    2.71    0.89
  -1  -5   7    6.58    1.09
   1   5   7    5.11    1.03
  -1   5  -7    4.46    0.88
   1   5   7    3.86    0.90
   1   5   7    5.10    0.94
   1   5   7    5.70    0.86
  -1   5  -7    4.18    0.90
   1  -5   8   -0.07    0.63
  -1   5   8   -0.16    0.56
   1   5  -8    0.85    0.55
  -1   5   8    1.45    0.67
  -1   5   8    0.38    0.70
   1   5   8    0.68    0.56
   1   5   8    0.12    0.54
  -1   5  -8   -0.16    0.50
   1   5   8    1.39    0.68
  -1   5  -8   -0.50    0.57
  -1  -5   8    0.42    0.62
  -1   5   9    0.23    0.40
   1   5  -9   -0.49    0.33
  -1  -5  -9    1.40    0.36
  -1   5   9    0.56    0.37
  -1   5   9   -0.47    0.31
   1  -5   9    0.31    0.28
  -1   5  -9   -0.46    0.42
  -1  -5   9    0.65    0.32
   1   5   9   -0.36    0.37
   2   5   0   27.01    5.07
  -2  -5   0   22.27    4.69
   2   5   0   20.14    1.75
   2  -5   0   27.87    3.58
   2  -5   0   18.22    1.96
  -2  -5   0   21.54    2.58
  -2  -5   0   19.19    1.69
   2   5   0   22.59    2.13
  -2   5   0   20.56    1.62
  -2   5   0   21.72    2.03
   2   5  -1    2.04    0.83
  -2  -5  -1    4.42    4.60
  -2   5   1    1.39    0.77
  -2   5   1    0.79    0.85
   2  -5   1    1.89    0.92
   2   5  -1    1.29    0.88
  -2  -5  -1    1.47    1.30
   2   5  -1    5.20    4.06
   2   5   1    1.87    1.13
   2  -5  -1    1.08    0.99
   2  -5  -1    3.05    1.89
  -2  -5   1    0.50    0.62
  -2   5  -1    1.29    0.90
  -2  -5   1    7.86    4.54
   2   5   1    1.32    0.85
  -2  -5   1    2.56    1.33
   2   5  -2   56.12    3.60
   2  -5   2   52.69    3.38
  -2   5   2   49.25    4.12
  -2   5   2   50.40    3.30
  -2  -5  -2   44.30    3.93
   2   5  -2   50.33    3.26
   2   5  -2   48.69    9.02
   2   5   2   50.43    3.59
  -2  -5   2   48.67    3.88
  -2   5  -2   54.97    3.72
  -2  -5   2   52.25    3.05
  -2  -5   2   52.03    8.99
  -2   5   3   11.28    2.05
   2  -5   3   10.14    1.70
  -2   5   3   16.42    2.23
   2   5  -3   14.54    2.33
  -2   5   3   11.86    1.13
   2   5  -3   10.51    1.74
  -2   5   3   10.78    1.26
   2  -5  -3   12.12    2.41
   2   5   3   10.63    1.30
  -2   5  -3   11.25    1.25
  -2  -5   3   12.01    1.23
  -2  -5   3   11.14    1.78
   2   5   3   11.60    1.12
   2   5   3   12.54    2.33
  -2  -5   3    9.49    2.04
  -2   5  -3   12.70    1.20
  -2   5  -3    7.45    1.83
  -2   5   4   72.52    3.66
  -2   5   4   71.42    4.88
  -2   5   4   74.34    3.71
   2  -5   4   71.06    3.66
  -2   5   4   67.97    3.50
  -2  -5  -4   61.12    5.28
   2   5  -4   70.95    6.39
   2  -5   4   70.33    4.79
  -2  -5  -4   71.42    5.93
   2   5  -4   72.04    5.25
   2  -5   4   71.50    4.83
  -2   5   4   68.28    3.59
  -2   5   4   68.33    3.68
  -2  -5   4   66.75    3.61
  -2  -5   4   61.93    4.01
   2   5   4   74.78    3.66
   2   5   4   72.18    3.69
  -2  -5   4   72.30    3.63
   2   5   4   69.09    3.66
  -2   5  -4   70.72    3.73
   2   5   4   77.02    5.00
  -2   5  -4   74.05    5.69
  -2   5  -4   69.96    3.70
   2   5   4   77.44    3.70
  -2  -5   4   70.55    4.50
  -2   5  -4   74.60    3.80
  -2   5   5   48.50    2.83
   2   5  -5   53.08    4.89
  -2   5   5   49.56    2.99
   2  -5   5   51.73    2.81
  -2   5   5   38.05    4.76
  -2  -5  -5   38.33    4.94
  -2   5   5   47.84    2.90
  -2   5   5   46.83    2.69
   2  -5   5   46.74    4.41
   2   5   5   51.75    2.77
   2   5   5   48.50    4.57
  -2   5  -5   40.05    5.32
   2   5   5   53.21    2.80
  -2   5  -5   48.67    2.82
   2   5   5   48.95    2.77
  -2  -5   5   50.12    2.71
  -2   5  -5   50.96    2.88
   2   5   5   45.44    3.26
  -2  -5   5   48.55    4.14
   2  -5  -5   42.53    5.97
  -2  -5   5   48.64    2.74
  -2   5   6   -0.93    2.78
  -2  -5  -6   -1.43    3.26
  -2   5   6    0.05    0.80
  -2   5   6    0.51    0.95
   2  -5   6    2.10    2.45
   2   5  -6   -2.73    3.21
  -2   5   6   -0.86    0.77
  -2   5   6   -0.77    0.78
   2  -5   6    0.99    0.73
   2  -5   6    0.43    0.90
  -2   5  -6   -0.85    0.97
   2  -5  -6    3.29    3.98
   2   5   6    0.73    0.86
   2   5   6   -4.07    2.46
  -2  -5   6   -0.87    1.17
  -2  -5   6    0.94    0.90
  -2   5  -6    0.70    2.94
  -2   5  -6   -0.29    0.71
  -2  -5   6   -3.10    2.40
   2   5   6    0.15    0.78
  -2  -5   6    1.32    0.77
   2   5   6   -0.62    0.75
  -2  -5   6    3.20    1.94
   2   5   6    0.46    0.90
   2  -5   7    0.59    0.85
  -2   5   7    1.72    0.83
  -2   5   7    0.57    1.14
  -2   5   7    0.33    0.79
  -2  -5  -7   -0.07    0.63
   2   5   7    2.42    1.22
   2   5   7    2.00    0.77
  -2   5  -7    1.43    0.84
  -2  -5   7    0.21    1.04
  -2  -5   7    2.66    0.70
  -2  -5   7    1.21    1.00
   2  -5   8    0.64    0.62
  -2   5   8    0.50    0.59
   2   5  -8   -0.41    0.57
  -2   5   8   -0.55    0.58
  -2   5   8    0.46    0.54
   2   5   8   -1.55    1.01
   2   5   8    0.40    0.60
   2   5   8    0.90    0.51
  -2  -5   8   -0.96    0.57
  -2   5  -8   -0.05    0.53
   2  -5   9   10.00    0.70
  -2   5   9   10.98    0.73
   2   5  -9   10.17    0.69
  -2   5   9   11.33    0.69
  -2  -5  -9   10.43    0.70
   2   5   9    9.47    0.71
  -2  -5   9   10.73    0.71
  -2   5  -9   10.37    0.72
  -3  -5   0   10.70    6.79
   3  -5   0   -0.76    1.09
  -3   5   0   -0.33    1.06
  -3  -5   0    0.31    1.36
  -3   5   0    0.75    0.99
   3   5   0    0.55    0.98
   3  -5   1    8.19    1.51
  -3   5   1    9.85    1.69
  -3  -5  -1    7.03    1.80
   3   5  -1   11.57    5.89
   3   5  -1    9.26    1.43
  -3  -5   1   10.00    2.01
  -3   5  -1   11.60    1.96
  -3   5  -1   11.26    1.85
   3  -5  -1    9.30    1.52
  -3  -5   1   16.61    7.11
   3   5   1   13.94    2.06
  -3  -5   1   10.43    1.51
  -3   5   2    1.16    0.95
  -3   5   2    1.39    1.10
  -3  -5  -2    0.96    1.62
   3   5  -2    2.00    1.39
  -3  -5   2    0.78    1.75
  -3   5  -2    3.56    0.86
   3   5   2    1.54    1.32
  -3   5  -2    1.72    1.45
  -3  -5   2    3.84    1.09
   3   5   2    1.84    0.69
  -3  -5   2    3.49    0.70
  -3   5  -2    1.45    1.35
  -3   5  -2    3.80    0.81
  -3  -5   2    5.06    1.43
  -3  -5  -3    4.79    1.86
   3   5  -3    3.47    1.63
  -3   5   3    1.53    0.70
  -3  -5  -3    2.52    2.12
  -3   5   3    1.34    0.91
  -3   5   3    3.09    1.40
  -3   5   3    0.65    0.89
  -3  -5  -3    2.28    1.17
   3  -5   3    2.05    1.53
  -3   5   3    2.46    0.69
  -3  -5   3    4.01    1.22
  -3   5  -3    1.91    0.64
  -3  -5   3    2.30    0.81
  -3   5  -3    0.41    1.54
   3   5   3    1.92    1.13
   3   5   3   -0.45    1.22
   3   5   3    1.88    0.69
  -3   5  -3    2.20    1.09
  -3   5  -3    2.48    0.91
   3   5   3    2.55    0.78
  -3   5  -3    2.12    0.93
  -3  -5   3    0.69    2.00
  -3  -5   3    2.48    0.65
  -3  -5   3    2.28    0.96
  -3   5   4   23.19    1.96
   3   5  -4   28.76    3.69
  -3  -5  -4   24.44    3.98
  -3   5   4   25.62    3.84
  -3   5   4   23.65    1.90
  -3   5   4   24.03    2.23
  -3   5   4   27.16    1.75
   3  -5   4   22.47    3.52
  -3  -5   4   22.73    1.73
  -3   5  -4   24.98    1.93
   3   5   4   24.47    1.80
   3   5   4   27.26    1.81
   3   5   4   22.75    2.05
  -3   5  -4   26.74    1.89
  -3   5  -4   25.83    1.69
  -3  -5   4   27.83    2.92
  -3  -5   4   25.30    2.11
   3   5   4   25.70    3.49
  -3  -5   4   25.86    2.23
  -3   5  -4   21.12    3.92
  -3  -5   4   24.79    1.77
   3   5   4   22.77    1.93
  -3   5   5    4.29    0.82
  -3  -5  -5    8.68    2.70
   3   5  -5    3.81    2.79
  -3   5   5    3.03    0.97
  -3   5   5   -1.41    2.88
  -3   5   5    3.32    0.87
   3  -5   5    5.02    1.00
  -3   5   5    3.64    0.98
   3  -5  -5    2.64    3.73
  -3  -5   5    6.20    2.95
   3   5   5    7.43    3.05
   3   5   5    2.24    0.81
  -3  -5   5    3.69    0.94
  -3  -5   5    4.11    1.20
  -3  -5   5    5.22    1.32
  -3  -5   5    4.43    0.91
   3   5   5    3.64    0.88
   3   5   5    3.96    0.96
   3   5   5    4.62    0.96
  -3   5  -5    3.25    0.96
  -3   5  -5    4.73    1.00
  -3   5   6    6.31    1.05
  -3   5   6    8.45    1.35
  -3   5   6    9.57    1.18
  -3   5   6    5.98    2.93
  -3  -5  -6    9.37    1.25
  -3  -5  -6    3.37    2.95
   3  -5   6    8.02    2.66
   3   5  -6    3.94    3.63
   3  -5   6    9.19    1.42
  -3   5   6    7.86    1.29
   3  -5  -6   14.95    5.67
  -3  -5   6    8.48    1.43
  -3  -5   6    8.31    2.85
   3   5   6    2.36    3.02
   3   5   6    7.97    1.36
  -3   5  -6    7.87    3.30
   3   5   6    9.82    1.40
  -3  -5   6   11.19    1.32
  -3   5  -6   10.34    1.25
  -3  -5   6   11.02    1.54
   3   5   6    6.30    1.00
   3   5   6    9.76    1.38
  -3  -5   6    7.28    0.94
   3  -5   7   47.15    2.63
  -3   5   7   46.41    2.62
  -3   5   7   46.02    2.52
  -3   5   7   47.70    2.73
  -3   5   7   50.84    2.68
  -3  -5  -7   48.15    2.47
  -3  -5   7   49.61    2.70
   3   5   7   46.88    2.60
  -3  -5   7   42.85    3.20
  -3  -5   7   46.81    2.49
  -3  -5   7   46.36    2.78
   3   5   7   45.23    2.58
  -3   5  -7   47.10    2.59
  -3   5   8    1.29    0.48
   3   5  -8    0.58    0.50
   3  -5   8    2.39    0.52
  -3  -5  -8    1.24    0.51
  -3   5   8    2.48    0.59
  -3   5   8    1.72    0.57
  -3   5  -8    1.33    0.48
  -3  -5   8    0.75    0.53
   3   5   8    0.60    0.47
   3   5   8    0.68    0.51
  -4  -5   0   20.22    1.77
   4   5   0   18.78    2.64
  -4   5   0   23.25    3.35
  -4   5   0   20.69    1.49
  -4   5   0   20.69    1.68
  -4   5   0   20.47    1.66
  -4  -5   0   16.63    3.20
  -4   5   0   23.25    2.42
   4  -5   0   21.00    2.57
  -4   5   1    7.16    1.05
  -4  -5  -1   11.18    1.42
   4   5  -1    8.23    1.76
  -4   5   1    9.93    1.97
  -4  -5  -1    8.26    2.43
  -4   5   1    9.03    1.07
  -4   5   1    7.97    1.48
  -4   5   1    8.61    1.03
   4  -5   1    5.58    1.61
  -4   5  -1    9.86    1.22
  -4  -5   1    7.56    1.79
  -4   5  -1    8.35    1.05
  -4   5  -1    7.44    1.57
  -4   5  -1   10.78    1.43
  -4   5  -1   10.65    1.49
   4   5   1    6.34    1.69
  -4  -5   1    5.24    2.10
   4   5   1    7.13    1.17
   4  -5  -1    7.22    1.77
  -4  -5   1    7.17    1.10
  -4   5  -1    9.19    1.30
  -4   5  -1    8.52    2.34
  -4  -5   1   12.48    1.76
  -4   5   2    5.31    1.40
  -4   5   2    7.99    1.08
  -4   5   2    9.56    1.29
   4  -5   2    6.48    1.73
  -4  -5  -2    7.51    1.06
  -4   5   2    6.91    1.15
   4   5  -2    8.34    1.74
  -4   5   2    8.29    1.07
   4   5  -2    8.81    1.14
  -4  -5  -2    5.63    2.21
  -4   5  -2    9.10    1.25
   4   5   2   10.16    1.17
  -4  -5   2    6.07    1.38
  -4  -5   2    6.37    0.84
  -4  -5   2    9.08    1.21
  -4   5  -2    6.85    1.79
  -4   5  -2    9.37    1.18
  -4   5  -2    8.24    1.31
  -4   5  -2    5.49    0.96
  -4   5  -2    4.31    1.87
  -4  -5   2    7.62    1.33
  -4   5  -2    8.73    1.03
   4   5   2    5.85    1.64
  -4  -5   2    4.69    2.15
  -4  -5   2    8.45    1.39
  -4  -5  -3   27.40    2.13
  -4  -5  -3   24.64    4.48
  -4   5   3   27.97    1.99
  -4   5   3   29.35    1.83
  -4  -5  -3   22.58    4.23
   4  -5   3   23.12    3.35
   4   5  -3   26.92    1.86
  -4   5   3   21.68    3.07
  -4   5   3   27.29    2.17
   4   5  -3   27.35    3.62
  -4   5   3   29.72    1.77
  -4   5  -3   28.49    1.78
  -4   5  -3   25.64    3.83
  -4   5  -3   29.58    2.07
  -4  -5   3   30.09    2.15
  -4   5  -3   28.18    1.99
  -4  -5   3   27.34    2.07
  -4  -5   3   21.81    3.66
   4   5   3   27.25    3.55
   4   5   3   30.85    1.84
  -4   5  -3   27.67    2.00
  -4  -5   3   25.85    2.95
  -4  -5   3   28.79    1.84
  -4  -5   3   26.25    1.75
  -4  -5  -4   12.12    3.40
  -4   5   4   14.24    2.07
   4   5  -4   14.82    2.67
  -4   5   4   17.47    1.78
  -4  -5  -4   11.14    2.94
  -4   5   4   15.95    1.59
  -4   5   4   13.72    1.50
   4  -5   4   20.23    2.74
   4   5   4   19.14    1.55
  -4   5  -4   11.01    2.63
  -4  -5   4   17.96    1.53
   4   5   4   17.17    1.56
  -4   5  -4   15.13    1.36
  -4   5  -4   16.56    1.68
  -4  -5   4   16.12    1.99
  -4  -5   4   18.60    2.87
   4   5   4   14.62    2.75
  -4  -5   4   15.51    1.91
  -4  -5   4   16.06    1.49
  -4   5  -4   16.60    1.65
  -4  -5  -5    0.05    3.33
   4  -5   5    0.06    2.29
  -4   5   5    5.83    0.90
   4   5  -5    4.70    2.66
  -4   5   5    4.11    0.87
  -4   5   5    5.70    1.02
  -4   5   5    6.37    1.03
  -4  -5  -5    5.85    0.93
   4  -5   5    5.89    1.00
  -4   5  -5    5.30    1.02
   4   5   5    4.18    3.64
  -4   5  -5    7.54    2.64
  -4   5  -5    4.92    0.95
   4   5   5    3.92    0.86
   4  -5  -5    7.57    5.53
  -4  -5   5    3.99    1.21
   4   5   5    5.84    0.93
  -4  -5   5    0.14    2.10
  -4  -5   5    4.27    0.88
  -4  -5   5    6.38    1.16
  -4  -5   5    4.96    0.94
  -4   5   6    8.90    1.36
   4  -5   6    6.24    0.92
  -4   5   6    7.54    1.02
  -4   5   6   11.47    1.57
  -4  -5  -6    5.89    0.85
  -4  -5   6    8.33    1.51
  -4  -5   6    6.83    1.27
   4   5   6    7.82    0.99
   4   5   6    8.05    1.00
  -4   5  -6    8.66    1.29
  -4  -5   6    9.49    1.30
  -4   5  -6    9.14    1.12
  -4  -5   6    9.37    1.46
   4   5  -7    0.72    0.71
   4  -5   7    1.02    0.61
  -4   5   7    0.94    0.74
  -4   5   7    1.23    0.63
  -4   5   7    0.50    0.60
  -4  -5  -7   -0.04    0.54
  -4  -5   7    0.22    0.64
  -4   5  -7    1.12    0.57
   4   5   7    1.74    0.67
  -4  -5   7   -0.95    0.63
   4   5   7   -0.12    0.65
  -4  -5   7   -0.86    0.87
   4   5  -8   -0.59    0.46
   4  -5   8    1.47    0.45
  -4   5   8    1.72    0.52
  -4   5   8    1.47    0.38
  -4  -5  -8    0.13    0.53
  -4   5   8    0.16    0.50
  -4  -5  -8    0.64    0.39
  -4   5  -8    1.45    0.66
   4   5   8    1.62    0.65
  -5   5   0   -1.02    0.72
  -5  -5   0   -0.28    2.07
   5  -5   0   -2.41    1.67
  -5   5   0    0.63    0.73
   5   5   0   -0.57    1.37
  -5  -5   0    0.56    0.87
  -5  -5   0    0.66    0.69
  -5   5   0   -2.35    1.46
  -5   5   0   -0.88    0.76
  -5   5   0    0.15    0.65
  -5   5   0    0.57    2.08
  -5   5   0    1.34    0.89
  -5  -5   0    0.04    0.84
  -5   5   1   24.83    1.89
  -5   5   1   22.10    3.15
  -5  -5  -1   21.78    4.01
  -5   5   1   27.40    1.92
  -5   5   1   26.84    1.67
  -5   5   1   27.13    3.76
  -5  -5  -1   27.24    1.77
  -5  -5  -1   24.69    2.07
  -5   5   1   25.55    1.90
   5   5  -1   26.90    3.36
   5  -5   1   31.43    3.48
  -5   5  -1   18.18    3.78
  -5   5  -1   31.65    3.30
  -5  -5   1   26.22    1.92
   5  -5  -1   20.57    3.63
  -5   5  -1   26.24    1.85
  -5  -5   1   25.42    1.71
  -5   5  -1   28.80    1.91
  -5   5  -1   29.09    1.87
  -5  -5   1   26.16    2.89
   5   5   1   27.71    3.48
   5   5   1   27.51    1.84
  -5   5  -1   26.17    1.77
  -5   5  -1   23.45    2.00
  -5  -5   1   22.95    4.13
  -5  -5   1   23.51    2.10
   5   5  -2    6.24    1.97
  -5  -5  -2    7.63    2.59
  -5   5   2    5.94    1.89
  -5   5   2    7.73    0.85
  -5   5   2    6.86    1.03
  -5  -5  -2    6.07    1.04
  -5   5   2    8.32    1.00
  -5  -5  -2    8.05    0.89
   5  -5   2    7.33    3.22
  -5   5   2    7.84    2.17
  -5   5   2    6.38    1.09
  -5   5  -2    6.94    1.11
  -5   5  -2    7.18    1.01
  -5  -5   2    5.96    0.94
   5   5   2    7.49    2.57
  -5  -5   2    2.83    1.49
  -5  -5   2    8.22    1.33
  -5  -5   2    5.16    1.05
  -5   5  -2    6.29    1.78
  -5   5  -2    4.85    2.52
  -5   5  -2    5.19    1.88
  -5   5  -2    6.75    1.05
   5   5   2    8.40    1.21
  -5   5  -2    7.29    1.33
  -5  -5   2    7.39    1.11
  -5  -5   2    6.69    2.53
  -5   5   3    9.57    1.49
   5  -5   3   12.64    2.34
   5   5  -3    8.10    2.47
  -5  -5  -3    7.22    3.93
   5   5  -3    7.60    1.07
  -5   5   3    8.90    1.22
  -5  -5  -3    9.58    1.25
  -5  -5  -3    6.82    1.03
  -5  -5   3    7.77    3.39
   5   5   3    8.78    1.37
  -5   5  -3    9.96    1.26
  -5   5  -3    7.05    1.04
  -5   5  -3    6.06    2.40
   5   5   3    8.78    1.29
  -5   5  -3   10.20    1.23
  -5  -5   3    8.73    1.09
  -5   5  -3    9.26    1.24
  -5  -5   3   10.86    1.47
  -5  -5   3    9.49    1.99
  -5   5  -3    6.14    2.68
   5   5   3   12.08    2.31
  -5  -5   3    9.02    1.32
  -5   5   4   11.88    1.42
  -5  -5  -4   13.65    1.40
  -5   5   4   15.32    1.68
   5   5  -4    9.28    2.80
  -5  -5  -4   12.76    1.51
  -5  -5  -4   10.48    4.00
  -5   5   4   11.66    1.38
   5  -5   4   12.69    2.76
  -5   5  -4   11.92    1.64
  -5   5  -4   17.00    1.63
   5   5   4   13.44    1.46
  -5  -5   4   13.71    1.67
  -5  -5   4   12.07    1.43
  -5  -5   4   10.72    1.84
  -5  -5   4    8.89    2.47
  -5  -5   4   11.91    1.52
  -5   5  -4   13.79    2.87
   5   5   4   14.13    3.05
  -5   5  -4   12.01    1.29
  -5   5  -4   11.81    1.59
   5   5   4   13.19    1.50
  -5   5   5   -0.99    0.75
   5   5  -5    2.33    0.87
   5  -5   5   -3.03    2.84
   5  -5   5    1.53    0.88
  -5  -5  -5    0.49    0.72
   5   5  -5   -1.22    3.00
  -5   5   5   -0.39    0.82
  -5   5   5   -0.37    0.76
  -5  -5   5    1.62    2.81
  -5  -5   5   -0.26    1.04
  -5  -5   5    1.73    0.90
  -5   5  -5    0.92    0.82
  -5  -5   5   -0.45    0.93
  -5   5  -5    0.05    0.83
   5   5   5    0.35    4.11
  -5  -5   5    0.03    0.80
   5   5   5    0.10    0.73
   5   5   5    1.63    0.78
  -5   5  -5    5.03    3.15
  -5   5   6   24.55    1.56
  -5   5   6   18.15    1.59
  -5  -5  -6   20.69    1.47
  -5   5   6   19.25    1.55
   5   5  -6   21.91    1.67
   5  -5   6   20.99    1.57
  -5   5  -6   21.04    1.56
  -5  -5   6   21.84    1.84
  -5  -5   6   20.38    1.62
  -5   5  -6   21.82    1.54
   5   5   6   16.37    1.48
   5   5   6   19.12    1.49
  -5  -5   6   19.69    1.55
   5   5  -7    0.51    0.54
  -5   5   7    0.12    0.55
  -5  -5  -7    0.77    0.44
   5  -5   7    0.21    0.52
  -5   5   7    0.11    0.59
   5   5   7    0.56    0.46
  -5  -5   7   -0.20    0.59
  -5  -5   7    0.06    0.55
  -5  -5   7   -0.51    0.81
  -5   5  -7   -0.24    0.48
   5  -5   8    1.53    0.31
  -5   5  -8    1.78    0.35
   5   5   8    1.17    0.33
  -5  -5   8    1.17    0.34
   6   5   0   22.59    3.88
   6   5   0   19.24    1.64
  -6  -5   0   20.74    1.79
  -6  -5   0   17.27    1.51
  -6  -5   0   25.96    4.86
  -6   5   0   16.73    1.89
  -6   5   0   17.71    1.69
   6  -5   0   23.94    3.66
  -6   5   0   18.58    1.57
  -6   5   0   24.76    4.81
  -6  -5   0   18.42    1.85
  -6   5   0   19.65    1.67
  -6   5   1   12.38    1.68
  -6  -5  -1   16.39    1.52
   6  -5   1   15.72    2.94
  -6   5   1   14.76    3.08
   6   5  -1   29.55    5.29
  -6  -5  -1   23.13    4.89
  -6   5   1   15.71    1.53
  -6  -5  -1   16.62    1.80
  -6  -5  -1   15.06    1.59
  -6   5   1   15.87    1.37
  -6   5   1   17.08    1.63
  -6  -5   1   17.64    1.75
  -6   5  -1   13.78    2.10
   6  -5  -1   18.46    3.16
  -6   5  -1   14.48    1.49
  -6  -5   1   16.28    3.53
  -6  -5   1   16.32    1.64
  -6   5  -1   16.14    3.46
   6   5   1   14.74    2.51
  -6  -5   1   15.46    1.42
   6   5   1   14.78    1.56
  -6   5  -1   14.84    1.57
  -6  -5   1   13.95    1.59
  -6   5  -1   16.56    1.88
  -6   5   2    0.13    0.80
  -6   5   2    0.07    0.79
   6   5  -2    4.22    2.41
   6  -5   2    2.21    2.24
  -6  -5  -2    1.58    0.68
  -6   5   2    0.39    0.89
  -6   5   2    0.11    0.63
  -6  -5  -2    2.27    2.96
  -6  -5  -2    1.38    0.89
  -6   5  -2    4.41    2.91
  -6  -5   2   -1.46    0.88
  -6   5  -2    0.11    0.75
  -6   5  -2   -0.50    0.76
   6   5   2    1.70    3.80
  -6  -5   2   -0.16    4.43
  -6   5  -2   -0.85    0.91
  -6  -5   2   -0.24    0.86
   6   5   2    0.43    0.80
  -6   5  -2    1.30    0.94
  -6   5  -2    1.94    0.97
  -6  -5   2    0.83    0.79
  -6   5  -2   -2.77    3.73
  -6   5   3    2.03    0.85
  -6   5   3    5.27    0.85
  -6  -5  -3    3.49    0.81
  -6  -5  -3    0.49    4.26
   6   5  -3    1.93    2.43
  -6   5   3    4.43    1.00
   6  -5   3    0.24    2.64
  -6  -5  -3    3.76    0.79
  -6   5  -3    4.65    3.33
  -6   5  -3    4.88    1.08
   6   5   3   16.92    5.29
  -6   5  -3    0.01    3.13
   6   5   3    3.70    0.91
  -6  -5   3    4.18    0.92
  -6  -5   3    4.01    0.94
  -6  -5   3    3.49    1.00
  -6   5  -3    3.48    0.95
   6   5   3    3.64    0.89
  -6  -5   3    5.25    2.75
  -6  -5   3    2.24    0.89
  -6   5  -3    4.20    0.93
  -6   5  -3    3.50    0.83
  -6  -5  -4   20.83    1.64
  -6   5   4   20.46    1.64
  -6   5   4   19.68    1.84
  -6  -5  -4   21.56    1.69
   6  -5   4   22.69    3.47
  -6   5  -4   23.03    1.71
  -6  -5   4   21.49    1.73
  -6   5  -4   21.54    1.74
  -6  -5   4   21.99    1.87
  -6  -5   4   22.14    1.71
  -6  -5   4   16.41    3.22
  -6   5  -4   18.27    5.71
  -6   5  -4   24.07    1.87
   6   5   4   19.46    1.69
  -6   5  -4   22.27    1.56
   6   5   4   21.05    1.70
  -6   5   5   12.46    1.32
  -6  -5  -5   16.04    1.33
   6   5  -5   13.66    1.68
   6  -5   5   16.52    1.44
  -6   5   5   15.27    1.34
   6   5   5   15.01    1.39
  -6  -5   5   15.97    1.56
  -6  -5   5   17.01    1.44
   6   5   5   11.83    1.57
  -6   5  -5   13.32    1.46
  -6   5  -5   15.29    1.35
  -6  -5   5   16.34    1.46
  -6  -5  -6    2.67    0.59
  -6   5   6    3.60    0.63
  -6   5   6    1.84    0.63
   6  -5   6    1.99    0.63
   6   5  -6    2.58    0.69
   6   5   6    2.24    0.56
  -6   5  -6    3.06    0.60
  -6  -5   6    1.76    0.64
  -6  -5   6    2.49    0.62
  -6  -5   6    1.59    0.78
  -6   5  -6    2.88    0.56
  -6  -5  -7    0.67    0.33
   6  -5   7    1.12    0.37
  -6   5  -7    0.81    0.37
  -6  -5   7    0.51    0.46
   6   5   7    1.61    0.40
  -7  -5   0   -0.11    0.73
  -7   5   0    0.40    0.86
  -7   5   0   -0.28    0.81
  -7   5   0    0.84    0.93
   7   5   0   -1.13    0.75
  -7   5   0   -0.26    0.73
  -7   5   0   -2.98    4.20
  -7  -5   0    0.32    0.89
  -7  -5   0   -4.36    4.43
   7   5  -1    1.18    2.99
  -7   5   1    5.98    3.45
  -7  -5  -1   -3.90    3.19
   7  -5   1    3.92    3.21
  -7   5   1    0.32    0.67
  -7   5   1    1.24    0.90
  -7  -5  -1   -0.06    0.78
  -7   5   1    1.77    0.96
  -7  -5  -1   -0.33    0.82
   7   5  -1    1.61    0.86
  -7   5   1    2.32    0.85
  -7   5  -1   -0.13    0.94
  -7   5  -1    1.24    0.89
   7  -5  -1   -0.92    3.91
  -7  -5   1    0.55    0.75
  -7   5  -1    1.25    3.23
   7   5   1    1.12    0.83
  -7   5  -1    0.58    0.94
  -7  -5   1    0.51    0.86
  -7   5  -1    1.61    0.86
   7   5   1   -0.69    3.36
  -7  -5   1    0.38    0.95
  -7  -5   1    5.96    3.75
  -7  -5   1    1.33    1.04
  -7  -5  -2    3.84    0.86
  -7   5   2    3.66    1.02
  -7  -5  -2    2.59    3.51
  -7  -5  -2    3.31    0.73
  -7   5   2    4.52    0.92
   7  -5   2    2.63    3.37
   7   5  -2    1.43    3.14
  -7   5   2    2.95    0.83
  -7   5  -2    3.64    0.92
   7  -5  -2   -2.02    5.81
  -7   5  -2    2.20    0.85
  -7   5  -2   -3.31    2.96
  -7   5  -2    4.99    1.09
  -7  -5   2   -5.50    4.43
  -7  -5   2    2.70    0.83
  -7  -5   2    2.68    0.98
  -7  -5   2    3.75    0.88
   7   5   2    1.36    0.79
  -7   5  -2    3.26    0.80
   7   5   2    9.09    5.90
  -7  -5   2    4.79    0.95
  -7  -5  -3    7.93    1.11
  -7  -5  -3    6.87    0.96
  -7   5   3    8.80    1.25
   7   5   3    8.76    1.31
  -7  -5   3   10.02    1.41
  -7  -5   3    9.23    1.35
  -7  -5   3    8.57    1.34
  -7   5  -3    8.67    1.17
  -7   5  -3    8.38    1.19
  -7  -5   3    6.92    1.10
  -7   5  -3    8.46    1.30
  -7  -5  -4   10.61    1.19
  -7   5   4   11.14    1.42
  -7  -5  -4   10.15    1.53
   7   5   4   10.47    1.33
  -7   5  -4   11.12    1.40
  -7   5  -4   10.22    1.39
  -7  -5   4   10.09    1.32
  -7  -5   4   11.88    1.36
  -7  -5   4   12.98    1.37
  -7   5  -4   10.82    1.14
  -7  -5  -5    0.62    0.53
   7  -5   5   -0.57    0.53
  -7  -5   5    0.25    0.69
  -7   5  -5    0.46    0.82
   7   5   5    0.20    0.55
  -7  -5   5    0.18    0.63
  -7  -5   5    0.99    0.62
   7  -5   6    0.12    0.42
  -7  -5  -6    0.14    0.37
  -7  -5   6   -0.04    0.42
  -7   5  -6    0.16    0.40
  -7  -5   6   -0.49    0.52
  -7  -5   6    0.37    0.38
   7   5   6   -0.41    0.58
   8   5   0    1.78    0.76
  -8   5   0    4.39    1.21
  -8   5   0    2.96    1.23
  -8   5   0    3.42    0.79
  -8   5   0    4.12    0.73
  -8  -5   0    4.01    0.75
  -8   5   1   -1.33    0.67
  -8   5   1   -0.10    0.61
  -8  -5  -1   -0.02    0.72
  -8   5   1   -0.44    0.66
   8   5  -1    1.17    0.78
  -8   5   1   -1.39    0.74
  -8  -5  -1   -0.43    0.68
  -8  -5   1    0.26    0.73
  -8   5  -1    0.46    0.71
  -8  -5   1   -0.23    0.71
  -8   5  -1    0.38    0.78
   8   5   1    0.14    0.67
  -8   5  -1   -0.44    0.74
  -8   5  -1   -0.12    0.75
  -8  -5   1   -0.39    0.88
  -8  -5  -2   27.12    1.78
   8   5  -2   24.65    1.89
  -8   5   2   26.77    1.72
  -8   5   2   24.89    1.70
  -8   5   2   26.33    1.76
   8   5   2   26.89    1.77
  -8  -5   2   24.26    1.72
  -8   5  -2   27.09    1.82
  -8  -5   2   25.34    1.89
  -8  -5   2   22.76    1.82
  -8  -5   2   24.66    1.75
  -8   5  -2   24.95    1.71
   8   5   2   25.93    1.84
  -8   5   3    0.97    0.56
  -8  -5  -3    1.82    0.50
  -8  -5  -3    0.09    0.61
  -8   5   3   -0.16    0.66
  -8  -5   3    1.17    0.75
  -8   5  -3    2.41    0.59
  -8   5  -3    1.66    0.67
  -8  -5   3    0.12    0.66
  -8   5  -3    0.60    0.60
   8   5   3    0.30    0.69
  -8  -5   3    0.25    0.65
  -8  -5  -4    0.54    0.64
  -8  -5  -4    1.23    0.47
   8   5   4    1.08    0.56
  -8  -5   4    2.10    0.63
  -8  -5   4    1.03    0.58
  -8   5  -4    0.66    0.47
  -8   5  -4    0.31    0.53
  -8   5  -4    2.30    0.71
  -8  -5  -5    0.13    0.34
   8   5  -5   -0.56    0.51
   8  -5   5    0.02    0.44
  -8  -5   5   -0.69    0.40
   8   5   5    0.15    0.43
  -8  -5   5    0.40    0.57
  -8   5  -5   -0.29    0.41
  -8  -5   5   -0.29    0.42
  -9  -5   0   -0.13    0.51
  -9   5   0    0.55    0.58
  -9   5   0    0.22    0.54
  -9   5   0   -0.06    0.53
  -9  -5   0   -0.15    0.51
   9   5  -1    0.36    0.63
  -9   5   1   -0.14    0.54
  -9   5   1    0.57    0.58
  -9   5   1   -0.06    0.54
  -9  -5  -1    0.23    0.52
  -9   5  -1   -1.14    0.51
   9   5   1    0.95    0.59
  -9   5  -1    0.66    0.50
  -9  -5   1   -0.57    0.51
  -9   5  -1    0.49    0.51
  -9  -5   1   -0.07    0.53
   9   5  -2    1.03    0.70
  -9  -5  -2    0.39    0.48
  -9   5   2   -0.06    0.56
  -9   5   2    0.40    0.50
  -9   5  -2   -0.21    0.51
  -9   5  -2    0.00    0.47
  -9   5  -2   -0.70    0.45
  -9  -5   2    0.81    0.52
   9   5   2    0.87    0.52
  -9  -5   2    1.09    0.49
  -9  -5  -3    2.54    0.47
   9   5  -3    3.85    0.65
  -9   5   3    1.75    0.51
  -9   5  -3    2.42    0.43
   9   5   3    3.16    0.79
  -9   5  -3    2.89    0.75
  -9  -5   3    2.34    0.54
  -9   5  -3    1.91    0.49
   9  -5   4    0.37    0.30
   9   5  -4    0.56    0.56
  -9   5  -4    0.46    0.30
  -9  -5   4    0.67    0.36
   9   5   4    0.60    0.33
 -10  -5   0    1.91    0.38
 -10   5   0    1.71    0.39
  10   5   0    1.80    0.40
 -10   5   0    1.65    0.41
 -10   5   1    1.78    0.44
  10   5  -1    1.21    0.40
 -10  -5  -1    1.76    0.33
  10   5   1    1.69    0.43
 -10   5  -1    0.81    0.33
 -10   5  -1    1.68    0.34
   0  -6   0   69.93    4.25
   0   6   0   62.09    4.03
   0   6   0   68.95    3.98
   0   6   1   -0.29    0.83
   0  -6   1   -0.18    0.81
   0   6  -1    0.86    0.89
   0  -6  -1   -0.38    1.01
   0   6  -1   -0.20    1.05
   0   6   1   -0.24    1.01
   0  -6   1   -0.19    1.21
   0   6   2  137.23    6.90
   0  -6   2  127.10    6.53
   0  -6   2  122.91    7.58
   0  -6  -2  135.79    7.48
   0   6  -2  127.46    6.74
   0   6   2  127.94    7.19
   0   6   3    0.54    0.63
   0  -6   3    1.27    1.15
   0   6  -3   -0.32    1.39
   0  -6   3    0.41    1.49
   0   6  -3   -0.14    0.72
   0  -6  -3   -0.88    1.55
   0   6  -3    0.71    1.37
   0   6   3    0.33    0.70
   0   6   3    1.18    0.66
   0   6   3   -2.55    1.29
   0   6  -3   -1.23    0.81
   0  -6   4   24.16    1.89
   0   6   4   26.63    1.94
   0   6   4   24.48    1.83
   0   6   4   26.55    1.65
   0   6   4   28.70    2.04
   0   6  -4   29.69    1.96
   0   6  -4   29.75    3.83
   0   6  -4   23.90    1.88
   0   6   4   27.43    1.74
   0   6   4   27.54    3.50
   0  -6   4   26.94    3.19
   0  -6   5    2.62    2.00
   0   6  -5   -0.04    0.86
   0  -6   5   -0.81    0.74
   0  -6   5   -0.19    0.83
   0  -6  -5    0.33    2.52
   0   6   5    1.11    2.18
   0   6   5   -0.23    0.78
   0   6  -5   -0.87    2.75
   0   6   5    0.55    0.90
   0   6   5   -1.48    0.87
   0   6  -5   -0.93    0.90
   0   6   5    0.61    0.61
   0   6   5    0.02    0.80
   0   6   6  175.46   10.64
   0  -6   6  192.32    8.70
   0  -6   6  175.22   10.34
   0  -6  -6  150.82   11.82
   0   6  -6  182.46    8.77
   0   6  -6  198.42    8.81
   0  -6   6  191.75    8.81
   0   6  -6  179.44   11.56
   0   6   6  187.94    8.82
   0   6   6  198.45    8.78
   0   6   6  195.00    8.80
   0  -6   7   -0.79    0.90
   0  -6   7   -0.24    0.59
   0   6   7   -0.19    0.67
   0  -6  -7    0.38    0.65
   0   6  -7   -0.64    0.70
   0   6  -7    0.26    0.73
   0   6   7   -0.51    0.83
   0   6   7    0.04    1.06
   0   6   7   -0.98    1.04
   0   6   8   67.46    3.42
   0   6  -8   67.66    3.39
   0   6   8   71.07    3.39
   0  -6   8   72.43    3.41
   0   6   8   71.31    3.41
   0   6  -8   67.19    3.36
   0  -6   9   -0.03    0.18
   0  -6  -9   -0.19    0.27
   1  -6   0    0.58    1.20
  -1  -6   0    0.78    1.20
   1   6   0    0.92    1.21
   1   6   0   -0.82    0.86
  -1   6   0    0.76    0.92
  -1   6   0   -0.12    0.86
   1   6  -1  420.89   19.40
   1   6  -1  405.25   19.50
   1  -6   1  384.34   19.09
  -1  -6  -1  450.50   20.40
  -1   6   1  405.49   19.40
   1   6   1  411.68   19.39
  -1   6  -1  425.32   19.17
   1   6   1  428.58   19.67
  -1   6  -1  386.42   20.12
  -1  -6   1  385.71   18.94
   1  -6  -1  446.50   19.82
  -1  -6   1  412.71   19.90
  -1  -6  -2   -0.29    1.35
   1  -6   2    2.05    1.14
   1  -6   2    3.83    1.41
  -1   6   2    2.84    1.16
  -1   6   2    0.85    1.53
   1   6  -2    1.18    1.13
   1   6  -2    1.99    1.04
  -1   6  -2    0.73    1.16
   1   6   2    1.74    1.21
  -1  -6   2    0.12    0.95
   1   6   2    0.82    0.97
  -1   6   3  158.12    7.86
  -1  -6  -3  157.14    9.05
  -1   6   3  169.45    8.77
  -1   6   3  165.51    7.74
   1   6  -3  154.03    8.54
   1  -6   3  179.44    8.97
   1   6  -3  167.21    8.76
   1  -6   3  165.29    8.56
  -1   6   3  156.08    7.79
  -1   6   3  161.74    8.68
   1   6  -3  166.02    7.83
  -1   6   3  173.13    7.73
   1  -6  -3  184.54    8.91
   1   6   3  168.65    7.77
   1   6   3  158.48    7.74
  -1  -6   3  179.12   10.04
  -1   6  -3  160.44    7.85
  -1  -6   3  162.68    7.79
  -1   6  -3  163.60    7.88
  -1  -6   3  166.14    8.35
   1   6   3  177.49    8.96
   1   6   3  160.55    7.85
  -1   6  -3  169.71    9.11
   1   6   3  165.66    7.78
   1   6  -4   33.89    3.93
   1   6  -4   24.96    3.60
  -1   6   4   32.98    2.21
  -1   6   4   32.50    2.00
  -1   6   4   33.77    1.87
   1  -6   4   34.86    2.18
  -1   6   4   32.50    3.61
  -1  -6  -4   25.50    5.09
   1  -6   4   29.92    3.58
  -1   6   4   34.50    2.11
   1   6  -4   29.91    2.18
  -1   6  -4   31.68    2.14
  -1  -6   4   33.28    2.10
  -1   6  -4   28.81    4.21
   1   6   4   33.72    2.13
   1   6   4   31.89    2.06
   1   6   4   34.68    2.21
  -1  -6   4   32.82    3.24
   1   6   4   34.00    2.06
  -1  -6   4   34.24    2.11
   1   6   4   40.08    3.73
   1   6   4   31.86    1.94
  -1   6  -4   33.17    2.21
   1   6  -5   72.54    3.96
  -1   6   5   77.44    3.96
  -1   6   5   79.54    3.92
  -1   6   5   73.68    5.94
  -1   6   5   77.08    4.07
  -1   6   5   78.58    4.01
   1   6  -5   71.90    6.79
   1  -6   5   74.93    3.96
   1  -6   5   77.97    5.65
  -1   6   5   72.88    3.79
  -1  -6   5   76.15    3.94
  -1  -6   5   77.95    5.41
  -1   6  -5   75.49    4.05
   1   6   5   77.15    3.98
  -1   6  -5   79.21    3.95
   1   6   5   78.99    3.97
   1  -6  -5   71.24    7.29
  -1   6  -5   76.60    6.62
   1   6   5   74.33    5.68
   1   6   5   78.61    3.98
  -1  -6   5   78.56    3.95
   1   6   5   75.21    4.00
  -1   6   6    3.15    0.92
  -1   6   6    3.14    0.88
  -1   6   6    2.72    0.85
   1  -6   6    4.46    0.84
  -1   6   6    2.39    1.00
  -1  -6  -6    4.62    3.58
   1  -6   6    3.82    0.98
   1   6  -6    3.46    1.00
   1  -6   6    5.36    2.62
  -1   6   6   -0.59    2.80
   1   6  -6    2.99    0.95
  -1   6  -6    0.97    3.27
  -1  -6   6   -0.66    2.45
  -1  -6   6    2.99    0.97
   1   6   6    1.57    2.75
  -1   6  -6    2.85    1.02
   1  -6  -6    1.91    3.63
  -1   6  -6    2.79    0.82
   1   6   6    3.54    0.99
   1   6   6    3.82    0.98
   1   6   6    4.10    0.97
   1   6   6    3.94    0.93
  -1  -6   6    3.84    0.84
  -1   6   7  175.59    8.09
  -1   6   7  166.16    8.09
   1  -6   7  176.59    8.11
   1   6  -7  149.90    8.15
   1   6  -7  174.96    8.12
  -1   6   7  175.72    8.16
  -1  -6  -7  169.54    7.99
  -1   6   7  179.76    8.10
   1   6   7  174.88    8.08
  -1  -6   7  163.68    7.99
   1   6   7  172.00    8.11
   1   6   7  182.04    8.11
  -1   6  -7  172.16    8.03
  -1   6  -7  177.28    8.09
   1   6   7  170.90    8.06
  -1  -6   7  171.99    8.11
   1   6  -8   -0.10    0.49
   1  -6   8   -0.45    0.50
  -1   6   8   -0.16    0.57
  -1   6   8   -0.67    0.52
  -1   6   8    1.10    0.51
   1   6   8    0.06    0.49
   1   6   8   -0.02    0.44
   1   6   8    0.30    0.47
  -1   6  -8    0.46    0.53
  -1   6  -8   -0.14    0.50
  -1  -6   8    0.38    0.52
  -1  -6  -9   20.05    1.20
   1  -6   9   24.30    1.25
  -2  -6   0  385.91   18.90
   2  -6   0  365.09   17.99
   2   6   0  394.66   18.10
  -2   6   0  400.12   18.35
   2   6   0  385.00   18.55
  -2   6   1   30.35    2.57
  -2  -6  -1   26.74    3.12
   2  -6   1   27.85    2.52
   2   6  -1   29.37    2.45
  -2   6   1   27.09    2.33
   2   6  -1   30.15    2.64
   2   6   1   26.77    2.47
  -2   6  -1   31.76    2.70
  -2  -6   1   29.44    2.12
  -2  -6   1   23.76    3.16
   2   6   1   25.01    2.75
   2   6  -2  243.50   11.61
   2   6  -2  254.48   12.17
  -2   6   2  250.57   11.56
  -2   6   2  258.96   13.50
  -2   6   2  263.67   11.55
   2   6  -2  265.61   12.48
  -2   6   2  273.82   12.13
  -2  -6  -2  238.87   12.97
  -2   6  -2  235.32   11.57
  -2   6  -2  249.59   11.61
   2   6   2  274.93   12.65
  -2  -6   2  256.95   11.96
   2   6   2  249.59   11.57
  -2  -6   2  239.38   11.59
  -2  -6   2  234.82   12.94
   2   6   2  235.81   11.64
  -2   6   3   30.70    3.12
  -2   6   3   28.29    1.76
  -2   6   3   28.98    1.96
  -2   6   3   31.04    1.81
   2  -6   3   24.13    2.11
   2   6  -3   29.16    3.22
  -2   6   3   29.85    3.14
   2   6  -3   36.79    3.57
  -2   6   3   28.91    2.05
   2  -6   3   36.85    3.19
  -2  -6  -3   28.51    3.98
   2   6  -3   30.62    1.96
  -2  -6   3   27.70    1.87
  -2   6  -3   26.05    2.08
   2   6   3   29.28    3.15
   2   6   3   29.13    2.00
   2   6   3   30.16    1.90
  -2   6  -3   30.72    1.93
  -2   6  -3   32.57    2.13
  -2   6  -3   28.05    3.63
  -2  -6   3   31.69    2.77
   2  -6  -3   36.16    3.60
  -2   6  -3   29.55    1.86
  -2  -6   3   24.84    3.89
   2   6   3   37.63    2.53
  -2   6  -3   30.32    2.23
  -2  -6   3   30.04    2.06
   2   6   3   31.19    1.96
   2   6   3   31.12    1.86
  -2   6   4   16.84    1.67
   2  -6   4   14.01    2.49
   2  -6   4   14.99    1.59
  -2   6   4   18.60    1.42
   2  -6   4   17.11    3.13
  -2   6   4   16.56    1.64
   2   6  -4   20.36    3.65
  -2   6   4   16.54    2.52
  -2   6   4   16.57    1.32
   2   6  -4   13.75    2.93
  -2  -6  -4   17.72    5.51
  -2  -6   4   13.97    1.50
   2   6   4   16.49    1.49
  -2   6  -4   15.70    1.82
  -2   6  -4   20.59    1.64
  -2   6  -4   16.19    1.74
  -2   6  -4   16.29    3.17
   2   6   4   17.23    1.45
  -2  -6   4   15.64    1.54
   2   6   4   19.03    1.52
   2   6   4   18.79    1.61
   2   6   4   18.54    1.71
  -2  -6   4   14.84    2.12
   2   6   4   15.89    3.03
  -2   6   5    1.42    0.96
   2  -6   5   -1.22    3.14
   2  -6   5    1.30    0.90
   2   6  -5    0.76    2.80
  -2   6   5   -0.14    0.76
  -2   6   5    2.31    0.81
  -2   6   5    0.35    0.80
  -2   6   5    2.82    0.79
   2   6   5    0.98    0.75
   2   6   5    0.89    0.86
  -2  -6   5    2.38    0.85
  -2   6  -5    1.89    2.98
  -2  -6   5    0.88    0.83
  -2   6  -5    1.19    1.01
   2   6   5   -0.81    0.82
   2   6   5    1.96    2.34
   2  -6  -5    5.00    4.63
  -2  -6   5    0.05    1.35
  -2   6  -5    2.84    1.04
   2   6   5    0.73    0.79
  -2   6   6   57.04    3.29
  -2   6   6   65.02    3.28
  -2  -6  -6   48.51    7.21
  -2   6   6   61.40    3.45
  -2   6   6   45.39    6.05
   2  -6   6   56.81    5.99
   2  -6   6   62.46    3.35
   2   6  -6   63.61    3.51
   2  -6   6   62.76    3.18
  -2   6   6   60.02    3.38
   2   6   6   66.31    3.35
   2   6   6   64.43    3.30
  -2   6  -6   64.83    3.32
   2   6   6   63.43    3.27
  -2   6  -6   64.62    3.42
  -2  -6   6   63.39    3.38
  -2  -6   6   49.59    5.63
   2   6   6   62.58    3.37
  -2  -6   6   62.56    3.25
   2   6   6   56.88    5.81
  -2   6  -6   66.02    6.85
  -2   6   7    1.97    0.76
  -2   6   7    2.95    0.79
   2   6  -7    2.14    0.85
   2  -6   7    1.98    0.70
  -2   6   7    1.92    0.74
  -2  -6  -7    2.30    0.63
  -2   6   7    1.49    0.75
  -2  -6   7    3.23    0.87
   2   6   7    1.68    0.74
  -2   6  -7    3.30    0.78
   2   6   7    1.63    0.74
  -2  -6   7    0.61    0.59
   2   6   7    2.79    0.86
  -2   6   8   49.31    2.49
   2  -6   8   48.58    2.47
  -2   6   8   47.62    2.49
   2   6  -8   51.40    2.52
  -2   6   8   52.18    2.55
   2   6   8   48.47    2.47
   2   6   8   48.99    2.47
  -2   6  -8   47.37    2.46
  -2  -6   8   51.08    2.52
   3   6   0   -0.33    0.67
  -3   6   0   -0.55    0.76
  -3   6   0   -1.06    0.58
   3   6   0   -0.88    1.25
   3  -6   0   -1.95    1.51
  -3   6   0   -0.14    1.12
  -3   6   0    1.19    0.57
  -3  -6   0    0.15    1.69
  -3   6   1  362.68   16.31
  -3   6   1  365.12   16.30
   3   6  -1  368.59   17.23
  -3   6   1  341.68   16.37
   3   6  -1  389.28   16.76
  -3   6   1  377.59   17.19
   3   6   1  381.32   17.38
  -3  -6   1  326.20   17.83
   3   6   1  361.00   16.41
  -3   6  -1  363.78   16.35
  -3   6  -1  340.85   16.36
   3  -6  -1  317.61   17.00
  -3   6  -1  356.62   16.34
  -3  -6   1  329.82   16.31
  -3   6  -1  370.16   16.42
  -3  -6   1  342.27   16.60
  -3   6  -1  377.38   17.38
  -3  -6  -2   49.26    4.91
   3  -6   2   60.61    4.21
  -3   6   2   55.29    3.16
  -3   6   2   60.67    2.96
  -3   6   2   57.76    3.97
  -3   6   2   54.23    3.03
   3   6  -2   54.77    4.11
  -3   6   2   57.50    2.95
   3   6  -2   55.14    3.02
  -3   6   2   59.13    3.84
  -3  -6  -2   57.17    3.32
  -3   6  -2   61.88    3.22
  -3  -6   2   58.78    3.68
  -3   6  -2   60.99    3.12
   3   6   2   59.81    3.05
   3   6   2   63.37    4.31
  -3   6  -2   60.90    3.03
  -3   6  -2   57.20    3.09
   3   6   2   65.74    3.40
  -3   6  -2   62.83    4.55
   3   6   2   57.76    3.08
  -3  -6   2   55.62    3.02
   3   6   2   55.61    3.04
  -3  -6   2   59.20    3.53
  -3   6   3   50.85    2.71
   3   6  -3   51.88    2.84
  -3  -6  -3   46.84    3.11
  -3   6   3   49.73    2.94
  -3  -6  -3   47.21    5.18
   3  -6   3   49.90    4.17
  -3   6   3   53.16    2.67
   3   6  -3   55.13    4.27
  -3   6   3   53.02    2.93
  -3   6   3   46.54    3.99
  -3   6   3   49.19    3.84
  -3  -6   3   48.68    2.89
   3   6   3   54.77    2.88
   3   6   3   49.74    3.00
  -3   6  -3   51.86    2.75
   3   6   3   48.79    2.88
   3   6   3   56.91    4.35
  -3  -6   3   46.05    5.19
   3   6   3   52.10    2.88
   3  -6  -3   55.72    4.96
  -3   6  -3   49.02    4.83
  -3  -6   3   52.79    2.81
  -3   6  -3   53.38    2.92
  -3   6  -3   51.74    2.94
  -3   6  -3   53.50    2.92
  -3  -6   3   52.73    3.66
  -3  -6  -4   -0.90    2.51
  -3   6   4    0.72    0.82
  -3   6   4    0.71    0.70
  -3  -6  -4    1.55    5.41
   3  -6   4   -1.19    2.12
   3   6  -4    1.43    2.35
  -3   6   4    1.38    2.06
   3  -6   4    1.12    0.88
  -3   6   4    1.57    0.85
   3   6  -4    1.68    0.77
  -3  -6   4    1.26    0.82
  -3  -6   4    3.41    1.83
   3   6   4    1.08    0.80
  -3   6  -4    0.80    0.67
  -3  -6   4   -0.33    1.15
  -3  -6   4    0.53    0.83
   3   6   4   -0.73    0.71
   3   6   4   -1.34    1.97
  -3   6  -4   -0.23    1.05
   3   6   4    1.20    1.14
  -3   6  -4   -1.39    2.15
  -3   6  -4    1.73    0.92
  -3   6   5   81.57    4.12
  -3   6   5   76.75    4.12
   3  -6   5   83.12    6.05
   3   6  -5   82.62    4.19
  -3   6   5   73.61    6.41
  -3   6   5   79.62    3.95
  -3   6   5   75.31    4.00
   3   6  -5   68.21    7.75
   3  -6   5   78.12    4.07
  -3  -6  -5   71.51    7.22
   3   6   5   74.84    6.17
  -3  -6   5   73.51    4.43
  -3   6  -5   80.56    4.12
  -3  -6   5   81.61    4.05
  -3  -6   5   80.45    4.04
   3  -6  -5   72.38    8.84
   3   6   5   82.93    4.02
   3   6   5   81.73    4.03
  -3   6  -5   74.12    6.82
   3   6   5   77.79    4.05
  -3   6  -5   76.19    4.01
   3   6   5   76.88    4.08
  -3  -6   5   84.57    5.80
  -3   6   6   -0.28    0.80
  -3  -6  -6   -0.67    0.63
   3  -6   6   -0.53    0.85
  -3   6   6   -0.05    0.71
   3   6  -6    1.07    0.98
  -3   6   6   -0.32    0.68
   3  -6   6    1.22    5.25
  -3   6   6    0.51    0.84
  -3   6  -6    0.29    0.95
  -3   6  -6   -1.05    3.51
   3   6   6    0.54    0.70
   3   6   6    0.31    1.21
  -3  -6   6    0.57    0.72
   3   6   6    1.48    0.77
  -3  -6   6    0.10    0.83
   3   6   6   -0.34    0.82
   3  -6   7   56.44    2.86
  -3   6   7   56.59    2.97
  -3   6   7   53.80    2.87
   3   6  -7   52.85    2.95
  -3  -6  -7   53.77    2.76
  -3   6   7   54.44    2.83
  -3   6   7   53.50    2.77
  -3  -6   7   53.32    2.89
   3   6   7   53.51    2.84
   3   6   7   55.36    2.85
  -3  -6   7   55.11    2.77
  -3   6   8    2.43    0.62
  -3  -6  -8    0.83    0.46
  -3   6   8    1.57    0.55
   3   6  -8    2.72    0.48
   3  -6   8    2.29    0.49
   3   6   8    1.43    0.38
   3   6   8    1.71    0.54
  -3   6  -8    1.86    0.43
   4   6   0  269.91   12.65
  -4   6   0  259.81   12.33
  -4   6   0  266.49   12.39
  -4   6   0  283.45   13.35
  -4   6   0  279.74   12.29
  -4  -6   0  261.05   12.27
  -4  -6   0  249.96   12.47
   4  -6   0  263.90   13.35
   4   6   0  266.14   12.35
  -4  -6   0  237.20   14.07
  -4   6   0  277.88   12.29
   4   6   0  281.58   13.41
  -4   6   1   54.43    2.98
   4  -6   1   59.68    4.50
  -4   6   1   53.72    2.82
  -4   6   1   53.80    3.05
   4   6  -1   55.83    4.22
  -4   6   1   61.52    4.01
   4   6  -1   50.34    2.90
  -4  -6  -1   55.42    3.20
  -4  -6  -1   48.94    5.30
  -4   6   1   54.08    2.79
  -4  -6   1   51.53    3.19
  -4   6  -1   52.71    2.92
  -4   6  -1   48.51    3.09
  -4   6  -1   57.09    2.93
  -4  -6   1   53.01    4.98
  -4   6  -1   56.78    3.07
   4  -6  -1   53.03    4.94
  -4   6  -1   58.62    4.29
  -4  -6   1   59.68    3.90
  -4  -6   1   51.66    2.83
   4   6   1   52.40    4.34
  -4   6  -1   57.15    2.93
   4   6   1   55.78    2.95
  -4   6   2   37.73    2.13
  -4   6   2   37.66    2.10
   4   6  -2   38.02    4.07
  -4  -6  -2   38.02    2.52
  -4  -6  -2   36.78    5.00
   4  -6   2   37.63    4.01
  -4   6   2   40.17    3.45
   4   6  -2   34.76    2.24
  -4   6   2   35.85    2.25
  -4   6   2   35.51    2.41
  -4  -6   2   36.81    2.66
  -4   6  -2   39.34    2.26
  -4  -6   2   37.57    3.30
  -4   6  -2   41.57    2.39
   4   6   2   40.35    3.81
  -4  -6   2   37.29    4.95
  -4   6  -2   36.30    2.44
  -4   6  -2   37.75    2.33
   4   6   2   40.37    2.31
  -4   6  -2   36.90    4.02
  -4  -6   2   38.45    2.20
   4   6   2   38.39    2.27
   4   6  -3   -3.40    1.98
  -4   6   3    2.20    1.25
  -4   6   3    2.89    2.06
  -4   6   3    1.22    0.71
  -4   6   3    2.78    0.96
   4  -6   3    0.05    2.12
  -4  -6  -3   -2.50    2.53
  -4   6   3    1.08    0.66
  -4   6  -3    0.40    0.72
  -4   6  -3    1.99    0.96
  -4   6  -3    0.45    0.95
  -4  -6   3    0.01    0.72
   4   6   3   -0.18    0.77
   4   6   3    1.16    1.91
  -4   6  -3   -1.94    1.87
  -4  -6   3    1.36    1.73
  -4  -6   3    1.31    0.80
  -4  -6   3   -0.76    4.30
  -4   6   4  108.64    5.34
   4   6  -4  117.93    7.39
   4  -6   4  109.67    7.09
   4   6  -4  108.88    5.38
  -4   6   4  104.59    5.44
   4  -6   4  110.01    5.37
  -4   6   4  102.36    5.25
  -4   6   4  108.44    5.32
  -4  -6  -4  103.11    5.41
  -4   6  -4  110.60    5.38
  -4   6  -4  110.44    7.70
  -4  -6   4  105.86    5.33
  -4   6  -4  113.31    5.28
  -4   6  -4  110.58    5.44
   4   6   4  112.48    7.19
   4   6   4  104.92    5.46
   4   6   4  108.47    5.37
   4   6   4  111.15    5.34
  -4   6  -4  110.23    5.40
  -4  -6   4  112.86    5.58
  -4  -6  -5   -0.19    0.73
  -4   6   5    1.03    0.77
   4   6  -5   -0.61    3.36
   4  -6   5    0.33    0.88
   4   6  -5   -0.15    0.94
  -4   6   5    1.05    0.88
  -4   6   5    0.70    0.78
   4  -6   5    0.56    2.68
   4   6   5    0.92    3.04
  -4  -6   5   -2.91    2.53
  -4  -6   5    0.66    0.78
   4   6   5    0.23    0.70
  -4  -6   5    0.43    0.84
  -4   6  -5    0.02    0.89
  -4   6  -5   -0.23    0.83
   4   6   5    0.50    0.78
   4  -6  -5  -11.71    8.03
  -4   6  -5   -3.49    2.94
  -4   6   6   74.81    4.07
  -4   6   6   82.41    3.98
  -4   6   6   79.67    4.09
   4   6  -6   83.03    4.11
   4  -6   6   81.38    4.01
  -4  -6  -6   78.75    3.97
  -4   6   6   74.91    4.26
   4   6   6   79.64    3.98
  -4  -6   6   83.55    4.02
   4   6   6   78.97    4.01
  -4  -6   6   80.78    4.03
  -4   6  -6   82.12    3.96
  -4   6   7    8.26    0.96
  -4  -6  -7    8.53    0.89
   4  -6   7    6.90    0.99
   4   6  -7    5.46    0.75
  -4   6   7    7.67    1.13
  -4  -6   7    5.87    0.67
   4   6   7    5.05    0.69
   4   6   7    7.45    1.01
  -4   6  -7    6.10    0.94
  -4  -6   7    6.61    1.02
  -4   6   8   44.12    2.13
  -4   6   8   44.09    2.10
   4   6  -8   41.40    2.10
   4  -6   8   41.74    2.11
  -4  -6   8   41.61    2.11
   4   6   8   43.40    2.09
  -4   6  -8   45.26    2.09
  -5   6   0    0.92    1.62
   5  -6   0    1.42    2.52
  -5   6   0   -0.15    0.75
  -5  -6   0    0.38    0.75
  -5  -6   0    2.10    2.37
  -5   6   0   -1.10    1.74
   5   6   0   -0.51    1.97
  -5   6   0   -0.23    2.22
  -5   6   0   -0.99    0.90
   5  -6   1   57.20    5.62
  -5   6   1   58.56    3.26
  -5  -6  -1   57.84    3.05
   5   6  -1   58.05    5.06
  -5   6   1   60.90    3.39
  -5   6   1   66.40    4.61
  -5  -6  -1   50.73    5.61
  -5   6   1   63.01    3.08
  -5  -6  -1   54.80    3.37
   5  -6  -1   53.28    6.07
  -5   6  -1   58.55    4.77
  -5   6  -1   59.78    3.19
  -5  -6   1   63.78    3.66
  -5  -6   1   59.70    3.45
  -5   6  -1   63.09    3.27
  -5   6  -1   62.28    3.20
   5   6   1   54.59    4.83
  -5  -6   1   52.64    5.76
   5   6   1   58.38    3.21
  -5   6  -1   61.78    3.20
  -5   6  -1   48.14    5.33
  -5   6  -1   59.64    3.37
  -5   6   2    2.59    0.76
  -5  -6  -2    2.87    2.76
   5   6  -2   -0.19    2.10
  -5   6   2    2.45    0.94
  -5   6   2    1.42    2.07
  -5  -6  -2    2.15    1.02
  -5   6   2    1.60    0.67
   5  -6   2    1.21    2.88
  -5   6   2    2.76    0.82
  -5   6  -2    1.78    0.96
   5   6   2    1.83    0.77
  -5   6  -2    2.57    0.88
  -5  -6   2    2.31    2.18
  -5  -6   2    1.60    0.99
  -5  -6   2    1.34    0.75
  -5  -6   2    4.77    3.17
  -5   6  -2    2.29    0.93
  -5   6  -2    1.51    0.99
  -5  -6   2    2.12    1.14
   5   6   2    6.26    2.20
  -5   6  -2    0.01    2.15
  -5   6   3   36.27    2.34
   5  -6   3   49.22    5.10
  -5  -6  -3   40.63    2.52
  -5   6   3   32.95    2.28
   5   6  -3   37.05    4.50
  -5  -6  -3   45.63    6.12
  -5   6   3   36.00    2.20
  -5  -6  -3   38.37    2.28
   5   6  -3   42.27    2.44
  -5  -6   3   40.45    2.41
  -5  -6   3   35.83    4.77
  -5   6  -3   41.73    2.50
  -5  -6   3   39.05    2.62
  -5   6  -3   39.93    2.63
  -5   6  -3   42.68    2.53
  -5  -6   3   41.14    2.43
   5   6   3   38.40    2.46
   5   6   3   45.21    4.70
   5   6   3   38.37    2.42
  -5  -6   3   37.13    2.61
  -5   6  -3   43.06    2.37
  -5   6  -3   49.17    5.29
   5  -6   4    2.32    2.82
  -5  -6  -4    4.93    0.92
   5   6  -4    3.79    0.86
  -5  -6  -4    2.90    0.82
  -5   6   4    5.07    0.97
  -5  -6   4    1.27    1.07
   5   6   4   -0.89    3.04
  -5   6  -4    4.80    0.86
  -5  -6   4    4.22    0.88
   5   6   4    3.37    0.85
  -5   6  -4    5.00    0.92
  -5  -6   4    1.24    2.61
   5   6   4    3.27    0.80
  -5   6  -4    2.72    2.73
  -5   6  -4    4.08    1.09
  -5   6  -4    3.93    1.02
  -5  -6   4    4.58    0.97
  -5  -6  -5   91.45    4.32
  -5   6   5   88.03    4.47
   5  -6   5   90.26    4.37
  -5   6   5   83.33    4.31
  -5   6  -5   76.40    4.54
   5   6   5   86.11    4.33
  -5   6  -5   89.71    4.38
  -5  -6   5   87.37    4.36
  -5  -6   5   87.47    4.54
  -5  -6   5   93.04    4.68
  -5   6   6    3.34    0.69
  -5   6   6    2.95    0.70
  -5  -6  -6    2.66    0.62
   5   6  -6    2.68    0.74
   5  -6   6    1.28    0.86
  -5  -6   6    2.44    0.70
  -5   6  -6    4.59    0.79
   5   6   6    3.48    0.67
  -5  -6   6    2.16    0.73
  -5   6  -6    3.33    0.69
   5   6   6    3.50    0.64
   5   6  -7   39.89    2.30
   5  -6   7   46.10    2.27
  -5  -6  -7   45.88    2.23
  -5   6   7   45.25    2.30
  -5   6   7   41.41    2.27
   5   6   7   49.19    2.38
  -5  -6   7   43.81    2.24
  -5   6  -7   44.78    2.25
  -5  -6   7   50.79    2.50
  -6   6   0  172.23    8.69
  -6  -6   0  197.88   11.49
  -6   6   0  178.93    8.58
  -6   6   0  191.59    8.61
  -6   6   0  180.76    8.54
   6   6   0  183.94    8.64
   6   6   0  185.30   10.34
  -6  -6   0  174.97    8.49
  -6  -6   0  188.41    8.71
   6  -6   0  170.63   10.95
  -6   6   0  170.81   11.07
  -6   6   1    3.84    0.94
   6  -6   1    3.75    2.86
  -6  -6  -1    3.32    1.04
  -6   6   1    2.28    0.72
  -6   6   1    3.57    0.92
   6   6  -1    5.31    2.49
  -6   6   1    3.10    0.89
  -6  -6  -1    2.81    3.00
  -6  -6   1    4.61    3.50
   6  -6  -1   10.97    4.14
  -6   6  -1    2.30    1.03
  -6   6  -1    2.42    1.00
  -6   6  -1    4.06    0.85
  -6   6  -1    2.51    0.82
  -6  -6   1    2.09    0.97
   6   6   1    0.57    2.48
  -6   6  -1    3.13    2.92
   6   6   1    3.93    0.94
  -6   6  -1    4.75    0.91
  -6  -6   1    3.81    1.11
  -6  -6   1    3.72    0.83
   6  -6   2   56.93    6.80
  -6  -6  -2   49.71    2.65
  -6   6   2   44.08    2.88
  -6  -6  -2   53.18    2.97
  -6   6   2   45.94    2.66
   6   6  -2   44.27    5.34
  -6   6   2   46.31    2.78
  -6   6   2   46.28    2.87
  -6  -6  -2   48.65    7.68
  -6   6  -2   49.87    2.79
  -6  -6   2   48.58    2.75
  -6   6  -2   48.56    2.94
  -6  -6   2   48.19    2.89
  -6   6  -2   51.64    2.82
   6   6   2   50.51    2.84
   6   6   2   42.79    6.06
  -6   6  -2   54.39    2.96
  -6  -6   2   52.79    2.92
  -6  -6   2   51.79    2.88
  -6  -6   2   53.63    7.47
   6   6   2   54.24    2.77
  -6   6  -2   38.19    6.28
  -6   6   3   -0.61    0.87
  -6  -6  -3    0.32    0.67
  -6  -6  -3    2.16    3.68
  -6   6   3    0.39    0.89
  -6  -6  -3   -0.19    0.72
   6  -6   3    7.13    3.47
  -6   6  -3    0.11    0.82
   6   6   3    0.39    3.06
   6   6   3    0.00    0.74
  -6   6  -3   -0.96    0.95
   6   6   3    0.47    0.74
  -6   6  -3   -3.61    3.41
  -6  -6   3   -0.87    0.84
  -6  -6   3   -0.54    1.02
  -6   6  -3    0.22    0.83
  -6  -6   3    0.55    0.72
  -6   6  -3    0.34    0.80
  -6  -6   3   -1.71    0.91
  -6  -6  -4   74.94    3.69
  -6  -6  -4   73.05    4.05
  -6  -6   4   73.89    3.73
  -6   6  -4   73.24    3.69
  -6  -6   4   69.69    3.93
   6   6   4   68.30    3.80
  -6   6  -4   77.57    3.83
  -6   6  -4   76.34    3.96
   6  -6   5   12.41    1.27
  -6  -6  -5   12.64    1.13
   6   6  -5   12.09    1.44
  -6   6  -5   12.25    1.26
  -6  -6   5   10.11    1.31
  -6  -6   5   11.79    1.28
  -6   6  -5   13.08    1.20
  -6  -6   5   12.34    1.28
   6   6   5   12.07    1.19
   6   6   5    9.00    1.19
   6  -6   6   29.17    1.66
  -6  -6  -6   30.58    1.62
   6   6  -6   25.34    1.74
  -6  -6   6   30.65    1.69
  -6   6  -6   28.83    1.59
  -6   6  -6   29.70    1.63
   6   6   6   28.74    1.60
  -6  -6   6   32.35    1.74
   6  -6   7    0.06    0.25
  -6  -6  -7    0.75    0.29
   6   6   7   -0.31    0.23
   7  -6   0   -0.15    5.33
  -7   6   0   -0.45    0.96
   7   6   0   -0.26    0.79
  -7   6   0   -0.81    0.78
  -7  -6   0    0.53    0.71
  -7   6   0    0.12    0.81
  -7   6   0    1.49    0.80
  -7  -6   0    0.72    0.94
  -7  -6   0    0.08    4.24
   7   6   0    1.74    3.23
  -7   6   1   68.49    3.63
   7  -6   1   59.40    8.17
  -7  -6  -1   76.01    3.74
   7   6  -1   77.53    7.22
   7   6  -1   70.30    3.73
  -7   6   1   68.64    3.52
  -7   6   1   68.10    3.73
  -7   6   1   68.43    3.66
  -7  -6  -1   77.63    8.08
   7   6   1   66.38    3.65
  -7  -6   1   66.17    3.69
  -7   6  -1   70.79    3.77
  -7   6  -1   68.52    3.62
  -7   6  -1   64.37    3.68
  -7   6  -1   73.20    3.62
  -7  -6   1   70.26    3.54
   7   6   1   70.71    7.62
  -7   6   2    2.09    1.08
  -7  -6  -2   -0.11    0.78
  -7   6   2    0.53    0.80
  -7   6   2    0.05    0.73
  -7  -6  -2    0.47    0.81
  -7  -6   2   -0.30    1.18
  -7  -6   2    1.45    0.86
  -7  -6   2    0.48    0.69
  -7  -6   2   -0.53    0.72
  -7   6  -2   -0.18    0.78
   7   6   2   -0.39    0.68
  -7   6  -2   -0.74    0.83
   7   6   2   -0.25    0.72
  -7   6  -2   -0.60    0.72
  -7  -6  -3   22.25    1.53
  -7   6   3   23.55    1.71
  -7  -6  -3   24.83    1.66
  -7   6   3   22.91    1.55
   7   6   3   22.18    1.66
  -7   6  -3   24.12    1.70
  -7  -6   3   23.70    1.69
  -7   6  -3   23.61    1.60
  -7  -6   3   18.93    1.63
  -7  -6   3   28.13    1.78
  -7   6  -3   25.11    1.85
   7   6   3   27.04    1.74
  -7  -6   3   18.89    1.92
  -7  -6  -4   -0.93    0.52
   7  -6   4   -0.17    0.64
  -7  -6  -4    0.22    0.63
  -7   6  -4   -0.45    0.61
  -7   6  -4   -0.22    0.51
  -7  -6   4   -1.64    0.80
  -7  -6   4    0.60    0.73
   7   6   4    0.88    0.66
   7   6   4    1.51    0.71
  -7   6  -4    0.30    0.68
  -7  -6   4    0.46    0.62
  -7  -6  -5   22.94    1.35
   7  -6   5   23.99    1.41
  -7  -6   5   24.59    1.70
   7   6   5   23.77    1.38
  -7  -6   5   22.64    1.40
  -7  -6   5   18.96    1.74
  -7   6  -5   23.11    1.40
   7  -6   6    4.31    0.55
   7   6  -6    4.36    0.58
  -7  -6  -6    5.68    0.51
  -7  -6   6    5.81    0.65
  -7   6  -6    5.79    0.70
   7   6   6    6.63    0.58
  -8   6   0   31.84    2.13
  -8   6   0   34.55    2.01
  -8  -6   0   30.90    1.97
  -8  -6   0   35.53    2.04
  -8   6   0   30.44    1.91
  -8   6   0   33.04    2.02
   8   6   0   33.72    2.03
  -8   6   1    0.68    0.72
  -8   6   1    2.38    0.64
  -8   6   1    0.47    0.67
  -8   6   1    0.91    0.70
   8   6  -1    0.31    0.76
  -8  -6  -1   -0.24    0.69
  -8   6  -1   -0.83    0.67
  -8   6  -1    1.31    0.70
   8   6   1   -0.14    0.66
  -8  -6   1    0.10    0.63
  -8   6  -1    0.81    0.73
  -8  -6   1    0.48    0.60
  -8   6   2   42.77    2.28
  -8  -6  -2   44.67    2.34
   8   6  -2   38.40    2.34
  -8   6   2   38.07    2.26
  -8   6   2   40.86    2.28
  -8  -6   2   39.84    2.25
   8   6   2   40.11    2.26
  -8  -6   2   39.74    2.27
  -8   6  -2   41.61    2.34
   8   6   2   39.87    2.27
  -8   6  -2   40.98    2.32
  -8   6  -2   41.82    2.23
   8   6  -3    7.05    1.18
  -8  -6  -3    8.81    0.94
  -8   6   3    5.32    0.89
   8   6   3    7.67    0.97
  -8   6  -3    9.68    0.97
  -8   6  -3    7.98    0.89
  -8  -6   3    7.84    1.03
  -8   6  -3    6.95    1.06
  -8  -6  -4   21.29    1.54
   8  -6   4   25.41    1.40
   8   6  -4   25.98    1.62
  -8  -6  -4   23.56    1.33
  -8  -6   4   25.19    1.43
   8   6   4   24.38    1.39
  -8   6  -4   25.45    1.41
  -8   6  -4   24.47    1.66
   8  -6   5    1.68    0.32
   8   6  -5    1.14    0.42
   8   6   5    2.54    0.43
  -8   6  -5    0.52    0.31
  -8  -6   5    1.02    0.37
  -9   6   0    0.70    0.49
  -9   6   0    0.68    0.52
   9   6   0    0.09    0.59
  -9   6   0   -0.31    0.88
   9   6   0    1.08    0.46
  -9  -6   0   -0.25    0.43
  -9  -6  -1   11.26    0.95
  -9   6   1    8.55    0.96
  -9   6   1    8.89    0.87
   9   6  -1   11.08    0.99
  -9   6  -1    9.07    0.83
  -9  -6   1    9.60    0.90
  -9   6  -1    9.93    0.97
   9   6   1   10.42    0.91
  -9   6  -1    9.77    0.89
  -9  -6   1    8.99    0.88
  -9   6   2   -0.25    0.42
  -9   6   2   -0.41    0.58
   9   6  -2    1.27    0.46
  -9  -6  -2    0.42    0.64
  -9  -6   2   -0.18    0.39
  -9   6  -2    0.33    0.39
  -9   6  -2    0.49    0.70
  -9   6  -2   -0.09    0.53
  -9  -6   2    0.96    0.51
   9   6   2    0.78    0.46
   9   6  -3   21.77    1.27
   9  -6   3   21.99    1.22
  -9  -6  -3   21.12    1.22
   9   6   3   22.92    1.20
  -9   6  -3   21.52    1.17
  -9   6  -3   22.71    1.18
  -9  -6   3   23.92    1.27
  -9   6  -3   21.64    1.24
   0  -7   0    0.77    1.44
   0   7   0   -0.01    1.37
   0   7   0   -0.06    0.87
   0   7   0    0.47    0.92
   0   7   0    0.21    1.05
   0   7   1   10.83    1.12
   0   7  -1   13.55    1.29
   0  -7   1   15.24    2.72
   0   7   1   11.37    1.21
   0   7   1   15.68    1.65
   0   7  -1   14.17    2.60
   0   7   1   13.10    1.14
   0   7  -1   10.18    1.76
   0   7   1   13.21    2.07
   0  -7  -1   16.71    2.52
   0   7   1   12.76    2.22
   0   7  -1   12.04    1.26
   0   7   2   -1.54    1.41
   0   7  -2    2.14    1.38
   0   7   2    1.40    0.58
   0  -7  -2   -1.01    1.65
   0   7  -2   -0.15    0.67
   0   7   2   -0.72    1.11
   0   7  -2    0.76    0.77
   0   7   2    0.34    0.59
   0   7  -2    1.61    0.94
   0  -7   2    1.68    1.62
   0  -7   2    0.24    1.25
   0   7   2   -0.33    0.64
   0   7  -2    1.25    1.66
   0   7   2    0.28    0.78
   0   7   2   -0.30    0.89
   0   7   3    5.33    0.74
   0   7   3    4.39    0.93
   0  -7   3    4.59    2.24
   0  -7  -3    4.49    2.13
   0  -7   3    5.40    1.73
   0   7  -3    3.64    1.63
   0   7  -3    4.03    1.04
   0   7  -3    4.23    0.88
   0   7   3    5.12    0.85
   0   7   3    3.93    0.74
   0   7  -3    5.83    0.89
   0   7   3    5.71    1.91
   0   7   4   -0.38    0.70
   0   7  -4   -0.49    0.85
   0   7   4   -0.94    0.82
   0   7  -4    0.23    2.18
   0   7   4    0.26    0.85
   0  -7   4    1.50    2.08
   0   7   4    2.60    1.98
   0   7   4    0.06    0.61
   0  -7   4   -0.82    0.89
   0  -7   4    0.30    0.85
   0   7   5   26.67    3.66
   0  -7   5   33.92    2.24
   0   7   5   31.31    2.19
   0   7   5   30.87    2.31
   0   7  -5   34.76    2.29
   0   7   5   29.98    1.94
   0   7   5   33.40    2.42
   0  -7   5   28.81    3.62
   0   7  -5   33.58    2.30
   0  -7  -5   33.30    6.12
   0  -7   5   35.99    2.17
   0   7   5   32.17    2.19
   0   7   6    0.27    0.88
   0  -7   6   -4.01    3.26
   0   7   6   -0.05    0.85
   0   7   6    0.66    0.74
   0   7  -6   -0.61    0.90
   0   7   6   -2.81    3.05
   0   7  -6    0.68    0.90
   0   7   6    1.12    0.85
   0   7  -6   10.87    5.85
   0  -7   6   -0.44    0.88
   0  -7  -6    1.68    3.59
   0  -7   6   -0.76    0.70
   0   7   7    0.20    0.60
   0   7   7    0.64    0.66
   0   7   7    0.74    0.70
   0  -7  -7    0.77    0.60
   0  -7   7   -0.44    0.53
   0  -7   7    0.43    0.77
   0   7  -7    0.59    0.76
   0   7  -7    0.65    0.64
   0   7   7   -0.23    0.72
   0   7  -8   -0.38    0.51
   0   7   8   -0.80    0.64
   0   7   8   -0.11    0.40
   0   7   8    0.71    0.43
   0  -7   8   -0.56    0.43
  -1   7   0   -0.53    0.59
   1   7   0    0.14    0.51
  -1   7   0    0.64    1.21
   1  -7   0   -0.28    1.44
   1   7   0    1.01    1.04
  -1  -7   0    1.44    1.73
  -1   7   0   -1.36    1.15
  -1   7   0    0.68    0.66
  -1   7   0    0.47    0.61
   1   7   0    0.07    1.28
   1   7   0    0.61    0.73
   1   7  -1    1.61    1.33
   1   7  -1    3.92    1.28
   1  -7   1    3.30    1.66
   1   7  -1    1.05    0.63
  -1   7   1    3.23    0.72
  -1   7   1    1.97    0.62
  -1  -7  -1    2.82    1.68
   1   7  -1    2.78    0.82
  -1   7   1    3.63    1.23
  -1   7   1    3.16    0.78
  -1   7   1    2.91    0.67
  -1   7  -1    2.90    0.63
  -1   7  -1    3.61    0.68
   1   7   1    3.13    0.72
  -1   7  -1    3.80    1.26
   1   7   1    2.54    1.19
  -1   7  -1    2.60    0.82
  -1  -7   1    1.45    1.79
   1   7   1    0.69    1.30
  -1   7  -1    2.73    0.70
  -1  -7   1    2.44    1.25
   1  -7  -1    4.29    1.68
   1   7   1    1.94    0.69
   1   7   1    1.87    0.59
  -1   7   2    6.65    0.87
  -1   7   2    5.47    1.38
  -1   7   2    8.65    1.64
  -1   7   2    6.77    0.92
   1   7  -2    6.81    1.56
   1   7  -2    4.01    1.62
  -1   7   2    5.95    1.07
  -1   7   2    6.76    0.88
   1  -7   2    4.73    1.62
   1   7  -2    8.89    1.34
  -1   7   2    4.81    0.72
  -1  -7  -2    7.35    2.25
   1   7  -2    6.25    0.86
   1  -7   2    7.91    1.80
   1  -7  -2    6.33    1.93
  -1   7  -2    4.35    1.59
  -1  -7   2    5.92    2.09
   1   7   2    7.06    0.98
   1   7   2    4.79    0.92
   1   7   2    3.83    1.59
  -1   7  -2    9.15    1.37
   1   7   2    7.22    1.02
  -1  -7   2    6.19    0.86
  -1  -7   2    7.32    1.43
  -1   7  -2    9.07    1.16
   1   7   2    6.97    1.07
  -1   7  -2    9.30    1.27
  -1   7  -2    7.03    0.99
   1   7   2    5.99    1.66
  -1   7   3    3.10    0.68
  -1   7   3    2.73    1.79
   1   7  -3    3.03    1.75
  -1   7   3    1.39    0.70
  -1   7   3    3.62    0.82
  -1  -7  -3    3.88    2.28
  -1   7   3    3.55    1.43
   1  -7   3    1.54    1.78
   1  -7   3    4.74    2.00
   1   7  -3    2.83    0.76
   1  -7   3    2.75    1.07
  -1   7   3    3.81    0.86
   1   7  -3    2.69    0.96
   1   7  -3   -0.85    1.80
  -1   7   3    2.86    0.66
  -1  -7   3    5.40    1.63
  -1   7  -3    3.05    1.77
   1   7   3    2.82    0.72
  -1   7  -3    2.90    0.86
   1   7   3    1.20    0.65
   1   7   3    1.92    0.67
  -1   7  -3    3.05    1.06
  -1   7  -3    2.60    0.77
  -1  -7   3    1.86    0.74
   1   7   3    0.60    1.73
   1  -7  -3    2.45    1.96
  -1  -7   3    2.57    2.26
   1   7   3    2.28    0.81
   1   7  -4    5.64    1.06
  -1   7   4    4.75    0.77
  -1   7   4    5.52    0.89
   1  -7   4    4.65    2.19
  -1   7   4    0.85    2.18
  -1   7   4    4.71    1.05
  -1   7   4    5.62    0.97
   1   7  -4    4.00    2.52
   1   7  -4    5.17    1.09
  -1  -7   4    3.76    2.19
   1   7   4    2.54    2.09
  -1  -7   4    3.92    0.89
   1   7   4    2.89    0.85
  -1   7  -4    4.74    2.68
   1   7   4    3.97    0.78
  -1  -7   4    6.99    1.04
   1   7   4    4.82    0.96
  -1   7  -4    5.59    1.02
   1   7   4    4.91    0.91
  -1   7  -4    4.48    1.08
   1  -7   5    1.19    0.90
  -1   7   5    0.65    0.86
   1   7  -5    1.54    3.65
   1  -7   5    5.11    2.77
   1  -7   5    1.17    0.83
   1   7  -5    0.18    0.92
  -1   7   5    1.07    0.83
  -1   7   5    1.16    0.70
   1   7  -5    1.82    1.08
  -1   7   5    1.17    0.92
   1  -7  -5    0.18    3.41
  -1   7  -5    1.39    0.87
  -1  -7   5    0.57    0.92
   1   7   5    1.77    0.93
   1   7   5    1.59    0.91
   1   7   5    2.10    0.94
   1   7   5    0.81    0.84
  -1   7  -5    0.21    3.12
  -1  -7   5    2.75    0.88
  -1   7  -5    2.27    1.04
   1   7   5   -3.20    2.18
  -1  -7   5   -0.63    2.43
  -1  -7  -6   -1.71    3.90
  -1   7   6    2.86    0.87
  -1   7   6    4.31    0.98
  -1   7   6    3.98    0.96
   1   7  -6    3.17    1.03
   1   7  -6    3.51    1.00
  -1   7   6    9.16    3.42
  -1   7   6    3.28    1.06
   1  -7   6    3.93    1.00
   1  -7   6   -0.50    4.13
   1  -7   6    4.06    0.83
  -1  -7   6    5.25    0.99
  -1   7  -6    5.01    4.17
   1   7   6    5.26    0.89
   1  -7  -6   -2.59    3.96
  -1   7  -6    4.90    0.84
  -1  -7   6    4.16    0.89
   1   7   6    5.36    0.94
   1   7   6    4.82    0.92
   1   7   6    1.85    0.90
  -1   7  -6    3.23    0.98
   1   7   6    5.61    2.90
  -1  -7   6    2.37    4.64
  -1   7   7    8.78    1.14
   1  -7   7    6.17    0.93
  -1   7   7    9.50    1.26
  -1   7   7    8.42    1.20
  -1   7   7   10.80    1.18
  -1  -7  -7    7.20    1.02
   1  -7   7    8.85    0.99
   1   7  -7    9.11    1.30
  -1  -7   7    8.80    0.99
  -1  -7   7    8.27    1.20
  -1   7  -7    6.97    1.17
   1   7   7    9.28    1.22
   1   7   7    8.81    1.15
  -1   7  -7   10.55    1.08
   1   7   7    7.05    0.84
   1   7   7   10.38    1.18
  -1   7   8    0.81    0.44
  -1   7   8    0.59    0.42
   1  -7   8    0.18    0.56
   1   7  -8   -0.76    0.64
   1   7   8    0.75    0.46
   1   7   8    1.06    0.42
  -1   7  -8   -0.72    0.48
   1   7   8    0.52    0.36
   2   7   0    1.69    0.58
  -2   7   0    3.62    0.74
  -2   7   0    2.73    0.77
  -2   7   0    2.57    1.35
   2   7   0    1.33    0.78
  -2   7   0    2.58    0.66
  -2   7   0    2.18    0.63
  -2   7   0    2.20    0.74
  -2  -7   0    3.25    1.91
   2   7   0    3.27    1.54
  -2   7   1   23.93    1.71
  -2   7   1   25.19    1.52
  -2   7   1   25.94    1.59
   2   7  -1   28.72    1.90
  -2   7   1   24.79    1.73
  -2  -7  -1   18.85    3.61
   2  -7   1   24.94    3.07
  -2   7   1   25.77    2.68
   2   7  -1   27.27    2.91
  -2   7   1   27.10    2.63
   2   7  -1   25.60    1.65
  -2   7  -1   26.86    3.04
   2   7   1   25.76    1.59
   2  -7  -1   30.39    3.42
  -2  -7   1   24.92    1.74
   2   7   1   27.29    1.70
  -2   7  -1   25.10    1.65
   2   7   1   23.59    1.77
  -2   7  -1   24.58    1.60
   2   7   1   30.26    2.87
   2   7   1   26.02    2.84
  -2  -7   1   16.95    3.49
  -2   7  -1   25.72    1.65
  -2   7  -1   24.92    1.71
  -2   7  -1   24.94    1.79
  -2   7   2   13.66    1.20
  -2   7   2   11.48    2.46
   2  -7   2   13.00    2.20
  -2   7   2   12.48    1.34
  -2   7   2   10.79    1.77
   2   7  -2   13.66    2.18
  -2  -7  -2   17.31    3.71
   2   7  -2   16.81    3.09
   2   7  -2   15.19    1.40
  -2   7   2   14.34    1.23
  -2   7   2   15.37    1.37
  -2  -7   2   12.34    2.63
  -2   7  -2   13.63    1.29
  -2   7  -2   12.93    1.59
   2   7   2   14.32    1.42
  -2   7  -2   14.06    1.41
  -2  -7   2   15.43    2.80
   2  -7  -2   18.44    3.03
  -2   7  -2   16.76    1.56
   2   7   2   16.02    1.51
  -2   7  -2   17.27    1.42
   2   7   2   14.24    1.27
  -2  -7   2   14.02    1.37
   2   7   2   15.87    1.30
   2   7   2   18.90    2.85
  -2   7  -2   18.53    3.07
  -2   7   3    0.17    0.58
  -2   7   3   -0.29    1.48
   2   7  -3   -0.93    0.68
   2  -7   3    3.24    1.84
   2  -7   3   -0.50    2.09
   2   7  -3    2.26    2.13
  -2   7   3   -0.39    0.72
  -2  -7  -3    3.36    2.32
  -2   7   3    0.37    0.85
   2   7  -3    0.00    1.92
  -2   7   3    0.08    0.63
  -2   7   3    0.49    2.02
   2  -7   3    0.37    0.99
  -2   7   3   -1.43    0.72
  -2   7  -3   -1.53    0.91
  -2  -7   3   -4.68    4.05
   2  -7  -3    2.68    2.25
  -2   7  -3    0.89    0.92
  -2  -7   3    0.66    0.82
   2   7   3    0.38    0.67
   2   7   3    0.66    0.82
   2   7   3    0.44    0.71
  -2  -7   3    2.21    1.74
   2   7   3   -1.67    1.61
  -2   7  -3    0.53    0.89
  -2   7  -3   -0.33    0.82
  -2   7  -3   -1.53    2.47
   2   7   3    0.90    0.70
   2   7  -4    0.76    0.99
  -2   7   4    0.66    0.81
  -2  -7  -4    3.78    4.05
  -2   7   4    0.27    0.91
   2  -7   4   -0.69    0.86
   2  -7   4    0.97    2.44
  -2   7   4   -0.28    0.85
  -2   7   4   -0.33    0.60
  -2   7   4   -2.26    2.09
   2   7   4    0.03    0.74
   2   7   4    1.02    1.16
  -2   7  -4    1.82    2.34
  -2   7  -4    0.49    0.82
  -2  -7   4    0.91    2.07
   2   7   4    0.03    0.76
  -2  -7   4    0.72    0.83
  -2   7  -4   -0.43    1.75
   2   7   4    0.80    2.26
   2   7   4   -0.06    0.78
   2   7   4    0.74    0.89
  -2   7  -4    0.08    0.96
  -2  -7   4    0.72    0.85
   2  -7   5    1.90    0.87
  -2   7   5   -0.22    3.04
  -2   7   5    2.91    1.03
   2   7  -5    1.02    1.14
  -2  -7  -5   -1.46    3.40
   2  -7   5   -0.38    2.82
  -2   7   5    0.56    0.60
  -2   7   5    2.13    0.91
  -2   7   5    0.89    0.82
  -2   7  -5    1.12    0.97
  -2  -7   5    3.01    0.90
   2   7   5    0.90    0.78
  -2   7  -5    1.50    0.83
   2   7   5    2.35    0.86
  -2  -7   5    0.20    3.24
   2  -7  -5    3.17    4.42
  -2   7  -5   -2.77    2.96
   2   7   5    0.57    0.90
   2   7   5    3.60    2.56
  -2  -7   5    1.59    0.85
   2   7   5    2.26    0.89
   2   7  -6    0.44    0.94
  -2   7   6    1.57    0.77
  -2   7   6    0.05    0.84
   2  -7   6   -0.44    0.92
   2  -7   6   -0.28    0.78
  -2   7   6    0.59    0.90
  -2   7  -6    0.73    0.80
   2   7   6    1.45    0.78
   2   7   6   -0.15    0.82
  -2  -7   6    0.16    0.70
   2   7   6    0.77    0.85
  -2  -7   6    0.47    0.83
  -2   7  -6    0.33    0.96
   2  -7   7    1.92    0.67
  -2   7   7    1.66    0.69
   2   7  -7    0.49    0.74
   2  -7   7    0.45    0.54
  -2   7   7    0.47    0.67
  -2   7   7    0.80    0.60
  -2  -7  -7    0.15    0.55
   2   7   7    0.88    0.64
  -2  -7   7    0.46    0.65
   2   7   7    1.91    0.64
  -2   7  -7    0.99    0.64
   2   7   7    1.13    0.63
   2  -7   8    0.35    0.39
   2   7  -8   -0.32    0.44
  -2   7   8    0.41    0.48
  -2   7   8    0.15    0.41
  -2  -7   8   -0.20    0.38
   2   7   8    0.14    0.45
   2   7   8    0.16    0.32
  -2   7  -8    0.90    0.40
  -3  -7   0   -0.41    0.80
  -3   7   0   -0.07    0.57
   3   7   0    0.08    0.74
  -3  -7   0    0.73    1.79
  -3   7   0    0.44    0.64
  -3   7   0   -0.77    1.26
   3   7   0   -1.41    0.85
   3   7   0    0.88    1.65
  -3   7   0    0.45    0.89
  -3   7   0    0.75    0.74
  -3   7   0    0.84    0.58
   3   7  -1   12.14    2.02
   3   7  -1   15.57    1.31
  -3   7   1   15.98    1.28
  -3   7   1   15.14    1.40
  -3   7   1   13.85    2.51
  -3   7   1   15.89    1.52
   3  -7   1   15.42    2.58
  -3   7   1   15.43    1.24
  -3  -7  -1   13.10    3.95
  -3   7   1   13.99    1.59
  -3   7  -1   14.42    1.37
  -3   7  -1   16.30    1.38
  -3   7  -1   13.73    2.84
  -3  -7   1   12.62    2.84
  -3   7  -1   15.37    1.55
   3   7   1   12.22    2.10
  -3   7  -1   14.55    1.33
  -3  -7   1   15.66    1.33
   3   7   1   14.25    1.24
   3   7   1   13.92    1.30
   3   7   1   16.10    1.41
  -3   7   2    1.20    0.63
  -3  -7  -2    1.63    1.02
  -3   7   2    1.32    0.64
  -3   7   2    1.25    0.79
   3   7  -2    0.24    1.70
  -3   7   2    2.64    0.71
  -3  -7  -2    0.36    2.41
   3   7  -2    1.07    0.67
  -3   7   2    0.88    1.43
  -3   7  -2    1.81    1.69
   3   7   2    0.17    1.77
  -3   7  -2    1.02    0.83
  -3  -7   2   -0.36    2.33
   3   7   2    0.78    0.71
  -3   7  -2    1.74    0.66
  -3   7  -2    0.04    0.83
   3   7   2    0.79    0.71
   3   7   2    1.65    0.71
  -3  -7   2    1.11    0.66
  -3   7  -2    1.62    0.84
  -3  -7  -3    0.41    2.67
  -3   7   3    0.47    1.99
   3   7  -3    5.27    2.36
   3  -7   3    1.68    1.02
  -3   7   3    2.72    0.83
   3  -7   3   -0.48    2.19
  -3   7   3    1.99    0.76
  -3  -7  -3    0.02    2.63
   3   7  -3    2.50    0.81
  -3   7   3    2.86    0.73
  -3   7   3    1.96    1.75
  -3   7   3    1.46    0.89
  -3   7   3    3.39    1.04
   3   7   3    4.66    0.95
  -3   7  -3    1.93    0.77
  -3   7  -3    3.28    1.49
   3   7   3    0.03    1.94
   3   7   3    0.45    0.81
  -3  -7   3    2.74    0.77
  -3   7  -3    2.67    0.98
   3  -7  -3    0.46    3.27
  -3  -7   3    2.36    2.04
  -3  -7   3    4.13    2.05
   3   7   3    1.49    0.83
  -3  -7   3    0.11    3.08
  -3   7  -3    0.10    2.29
   3   7   3    1.32    1.01
   3  -7   4   -0.55    0.89
  -3  -7  -4   -6.42    6.43
   3   7  -4    2.89    3.35
   3   7  -4   -0.29    1.01
   3  -7   4    1.98    2.73
  -3   7   4    1.00    0.85
  -3   7   4    0.15    0.62
  -3   7   4   -0.68    0.80
  -3  -7  -4    0.91    1.10
  -3   7   4   -0.07    0.76
   3   7   4    0.63    0.83
   3   7   4    0.35    2.30
  -3   7  -4   -4.18    2.60
  -3  -7   4    0.33    0.75
   3   7   4   -0.21    0.94
  -3   7  -4   -0.87    0.93
   3   7   4    0.19    0.79
  -3  -7   4    0.61    0.88
  -3   7  -4    0.42    1.06
  -3   7  -4    0.64    0.95
   3   7   4   -0.46    0.82
  -3   7   5    3.58    0.99
  -3   7   5    2.28    0.80
  -3   7   5    3.93    0.96
   3  -7   5   -1.59    3.15
  -3  -7  -5    4.83    3.97
  -3   7   5    3.14    0.76
   3  -7   5    2.68    0.89
   3   7  -5    3.66    1.18
   3   7  -5    2.75    4.25
  -3   7   5    3.81    3.50
   3   7   5    3.30    3.04
  -3   7  -5    4.02    0.95
  -3  -7   5    6.49    3.45
   3  -7  -5    1.08    5.22
  -3   7  -5    4.93    1.17
   3   7   5    1.68    0.79
  -3   7  -5   -1.51    3.28
  -3  -7   5    2.77    0.86
   3   7   5    3.31    0.92
  -3  -7   5    1.22    0.83
   3   7   5    3.64    0.93
   3   7   5    2.52    0.89
  -3   7   6    7.70    1.04
  -3   7   6    8.60    1.24
   3  -7   6    9.15    1.07
   3   7  -6    6.12    1.06
   3  -7   6    8.22    1.05
  -3  -7  -6    7.17    0.84
  -3  -7   6    5.74    0.90
   3   7   6    8.36    1.24
  -3   7  -6    4.76    1.08
   3   7   6    6.90    0.97
   3   7   6    7.06    0.91
   3   7   6    5.41    0.87
  -3  -7   6    7.44    1.03
   3   7  -7   -0.21    0.65
   3  -7   7    0.99    0.55
  -3   7   7   -0.59    0.56
  -3   7   7    1.11    0.54
  -3   7   7    1.30    0.62
   3   7   7    0.42    0.56
  -3  -7   7   -0.60    0.48
  -3   7  -7    0.93    0.63
  -3  -7   7   -0.38    0.58
   3   7   7    1.15    0.69
   3  -7   8   -0.18    0.29
  -3   7   8    0.46    0.37
   3   7  -8   -0.24    0.42
  -3   7   8    0.86    0.36
  -3  -7   8    0.25    0.30
  -3   7  -8    0.16    0.36
  -4  -7   0   -0.04    0.96
   4   7   0    0.40    0.64
  -4   7   0    1.28    0.77
  -4   7   0    0.85    1.49
  -4   7   0    0.66    0.68
   4   7   0    0.65    1.78
  -4   7   0    0.96    0.89
  -4   7   0    1.10    0.67
  -4  -7   0   -0.06    2.33
  -4  -7   0    1.17    0.76
   4   7   0   -0.09    0.71
   4  -7   1   -3.55    2.76
  -4  -7  -1   -1.33    2.67
   4   7  -1    0.21    0.65
  -4   7   1   -0.19    1.48
  -4   7   1    0.66    0.87
   4   7  -1    0.20    1.90
  -4   7   1    2.70    1.33
  -4   7   1    1.47    1.33
  -4   7   1    2.32    0.70
  -4  -7   1    0.62    2.56
   4   7   1   -0.20    0.76
  -4  -7   1    0.62    1.13
  -4   7  -1    1.91    0.87
   4   7   1    1.47    1.81
  -4   7  -1    1.00    1.79
  -4  -7   1    1.58    0.69
  -4  -7  -2   -0.88    1.00
  -4   7   2    1.03    0.65
  -4  -7  -2    0.18    2.84
  -4   7   2   -0.07    1.00
  -4   7   2    0.06    0.69
  -4   7   2    1.00    0.70
  -4   7   2   -1.38    1.70
   4  -7   2    1.54    2.73
   4   7  -2    0.13    0.77
   4   7  -2    1.05    1.98
   4   7   2    0.21    0.91
  -4   7  -2    0.80    0.81
  -4   7  -2    0.74    0.89
  -4   7  -2   -2.02    1.89
  -4  -7   2    0.22    0.70
  -4  -7   2   -1.09    2.94
   4   7   2   -0.47    1.22
  -4   7  -2    0.52    0.92
   4   7   2   -2.58    1.92
  -4  -7   2   -0.58    1.10
  -4   7  -2   -0.88    0.65
  -4   7   3    0.17    0.59
  -4  -7  -3    0.70    0.92
   4  -7   3   -1.91    3.19
  -4   7   3   -1.11    0.94
  -4   7   3    0.78    0.78
  -4   7   3   -0.87    0.76
  -4  -7  -3    4.63    5.23
   4   7  -3   -0.73    0.74
  -4   7  -3   -0.67    0.89
  -4   7  -3   -0.17    0.78
   4   7   3   -0.68    0.78
  -4   7  -3   -0.10    1.00
  -4  -7   3   -0.43    1.27
  -4   7  -3    0.80    2.87
   4  -7  -3    1.01    3.76
  -4   7  -3   -0.77    0.98
  -4  -7   3    0.86    0.80
  -4  -7   3    3.25    3.66
   4   7   3   -0.63    0.85
   4   7   3   -2.44    2.38
   4   7  -4    6.52    3.38
   4  -7   4    2.71    3.06
   4  -7   4    7.07    1.06
  -4   7   4    8.49    1.37
  -4  -7  -4    6.87    1.11
  -4   7   4    5.83    0.80
  -4   7   4    5.18    0.88
   4   7  -4    6.33    1.20
  -4   7   4    5.85    1.03
   4   7   4    8.49    1.03
  -4  -7   4    8.03    1.08
  -4   7  -4    8.34    1.11
   4   7   4    0.50    3.15
  -4  -7   4    7.43    1.03
  -4  -7   4   13.27    4.68
  -4   7  -4    7.59    1.31
  -4   7  -4    8.84    1.39
  -4   7  -4    6.90    0.95
   4   7   4    5.56    0.97
   4  -7   5    6.16    0.99
  -4   7   5    3.73    0.90
  -4   7   5    5.49    0.96
  -4   7   5    4.80    0.89
   4   7  -5    5.87    1.08
  -4  -7  -5    6.02    0.87
  -4   7  -5    4.36    0.91
  -4  -7   5    3.78    0.88
  -4   7  -5    6.77    1.14
   4   7   5    9.00    1.32
   4   7   5    7.39    0.89
  -4  -7   5    6.11    0.92
  -4   7   6    0.86    0.70
   4  -7   6   -0.47    0.58
  -4   7   6    0.44    0.66
  -4   7   6   -0.31    0.75
   4  -7   6    0.42    0.69
   4   7  -6    0.30    0.76
  -4  -7  -6   -0.38    0.60
   4   7   6   -0.17    0.64
  -4  -7   6    1.05    0.67
   4   7   6   -0.51    0.57
  -4  -7   6    0.11    0.71
  -4   7  -6    0.07    0.71
   4   7  -7   -0.47    0.49
  -4   7   7   -0.54    0.43
  -4  -7  -7    0.80    0.41
   4  -7   7    0.35    0.41
  -4   7  -7    0.34    0.49
  -4  -7   7    0.00    0.43
  -4  -7   7    0.25    0.84
   4   7   7    0.34    0.41
  -5   7   0    1.36    2.22
  -5   7   0   -0.20    0.73
  -5  -7   0   -0.55    0.71
  -5   7   0    0.73    0.77
  -5  -7   0    1.34    1.07
  -5   7   0    0.38    0.97
   5   7   0   -0.44    2.96
  -5   7   0    0.24    0.86
  -5  -7   0   -0.18    3.07
   5   7   0    0.66    0.84
  -5   7   1   -0.49    2.05
  -5   7   1    0.65    0.85
   5  -7   1    4.09    3.69
   5   7  -1    1.34    0.92
  -5   7   1    0.66    0.78
  -5   7   1    1.28    0.97
  -5  -7  -1    2.02    1.04
  -5   7   1    0.69    0.74
  -5   7  -1    0.55    0.87
  -5  -7   1    1.49    1.10
  -5   7  -1   -0.74    0.82
  -5   7  -1    0.50    0.84
  -5   7  -1   -0.24    1.02
  -5   7  -1    0.75    2.44
  -5  -7   1   -0.32    0.67
   5   7   1    0.13    0.82
   5   7  -2    0.03    0.83
  -5   7   2    1.12    0.71
   5   7  -2   -3.48    2.74
  -5   7   2    0.34    0.73
  -5  -7  -2    0.99    3.93
  -5  -7  -2    0.21    1.05
  -5   7   2   -0.28    0.72
  -5   7   2   -0.57    0.84
   5  -7   2    5.00    3.56
   5   7   2    0.79    0.81
  -5   7  -2    0.56    1.01
  -5   7  -2    0.15    0.75
  -5  -7   2    2.10    3.65
   5   7   2   -2.13    2.32
  -5   7  -2    1.66    2.61
  -5   7  -2    0.46    1.00
   5   7   2   -0.60    0.76
  -5  -7   2    0.48    0.72
  -5   7  -2    0.41    0.87
  -5  -7   2    0.40    1.05
  -5  -7  -3    0.12    0.90
  -5   7   3   -0.05    0.68
  -5  -7  -3    0.12    0.70
   5   7  -3    1.88    2.83
  -5   7   3    1.21    0.77
   5  -7   3   -2.41    3.64
   5   7  -3   -0.34    0.74
  -5   7   3    0.56    0.60
  -5  -7  -3   -3.13    3.80
  -5   7  -3   -0.81    0.73
  -5   7  -3   -0.31    0.82
   5   7   3    0.75    0.87
  -5   7  -3   -0.81    0.89
  -5  -7   3   -0.18    0.96
   5   7   3   -0.64    0.71
  -5   7  -3    2.93    2.95
  -5  -7   3    0.17    0.84
   5   7   3    3.87    2.82
  -5   7  -3   -0.72    0.94
  -5   7   4    9.73    1.30
  -5   7   4    6.54    1.50
  -5  -7  -4   10.64    1.33
   5  -7   4    9.37    1.33
   5   7  -4   12.54    3.61
   5   7  -4    9.06    1.45
  -5  -7  -4    9.29    1.25
   5  -7   4    8.54    5.33
  -5   7  -4    3.40    3.48
  -5  -7   4   10.03    1.42
  -5   7  -4   10.25    1.53
   5   7   4   11.38    3.80
   5   7   4    7.80    1.06
  -5   7  -4    9.49    1.32
  -5  -7   4    8.86    1.10
  -5   7  -4    9.12    1.01
   5   7   4    9.37    1.21
  -5   7  -4   10.73    1.51
   5   7  -5    0.16    0.73
  -5  -7  -5    0.27    0.68
   5  -7   5    0.66    0.70
  -5   7   5   -0.68    0.74
   5   7   5    0.64    0.64
  -5   7  -5   -0.42    0.71
  -5  -7   5   -0.20    0.75
  -5  -7   5    1.67    0.87
   5   7   5   -0.06    0.70
  -5   7  -5    0.11    0.81
  -5  -7  -6    0.22    0.46
   5  -7   6   -0.35    0.47
  -5   7   6   -0.14    0.61
   5   7  -6   -0.43    0.58
   5  -7   6   -0.44    0.52
   5   7   6   -0.63    0.55
   5   7   6    0.50    0.50
  -5  -7   6    0.01    0.51
  -5   7  -6    0.01    0.55
  -5  -7   6   -0.57    0.58
   5   7  -7    5.01    0.75
   5  -7   7    5.19    0.59
  -5  -7  -7    6.17    0.56
  -5  -7   7    6.28    0.91
  -5   7  -7    5.81    0.59
   5   7   7    6.05    0.63
  -6  -7   0    2.46    0.78
  -6  -7   0   -1.92    3.14
  -6   7   0   -0.16    0.79
  -6   7   0    1.22    0.97
  -6   7   0    1.74    0.87
  -6   7   0    2.12    0.89
  -6   7   0    2.36    0.91
   6   7   0    1.40    0.86
   6   7   0    0.37    2.39
  -6  -7   0    2.73    1.00
   6   7  -1   -1.27    2.69
  -6   7   1    3.17    0.98
  -6  -7  -1   -0.24    3.54
  -6  -7  -1    4.47    1.08
   6   7  -1    3.33    0.98
  -6   7   1    4.20    1.09
  -6   7   1    4.44    0.87
  -6   7   1    1.40    1.23
   6  -7   1    9.86    5.12
  -6  -7   1    5.82    1.18
  -6   7  -1    4.19    1.13
   6   7   1    4.69    0.97
  -6   7  -1    2.77    0.98
  -6   7  -1    3.44    0.94
  -6  -7   1    9.63    3.99
  -6   7  -1    3.34    0.95
  -6  -7   1    1.93    0.71
   6   7   1    2.66    2.87
   6   7  -2    1.83    3.15
   6  -7   2    5.57    5.86
  -6   7   2    7.60    1.16
  -6   7   2    7.63    1.07
  -6  -7  -2    8.06    1.14
  -6  -7  -2   10.77    1.32
  -6  -7  -2   15.64    4.40
  -6   7   2    9.86    1.37
   6   7   2    8.70    1.32
   6   7   2    6.58    3.91
  -6   7  -2   11.32    1.71
  -6   7  -2    7.77    1.08
  -6  -7   2    9.64    1.27
   6   7   2   10.61    1.46
  -6   7  -2    7.02    1.00
  -6   7  -2   -3.95    5.59
  -6  -7   2    9.36    1.20
  -6  -7   2    6.93    1.29
  -6  -7   2    0.36    5.01
  -6   7  -2    9.37    1.21
  -6   7   3    0.43    0.85
  -6  -7  -3    0.80    0.74
  -6   7   3    1.04    0.64
  -6  -7  -3    0.13    0.60
  -6   7  -3   -0.23    0.92
  -6   7  -3    0.61    1.00
  -6  -7   3    0.69    0.69
  -6   7  -3    0.47    0.71
   6   7   3    0.68    0.71
   6   7   3    0.47    0.67
  -6  -7   3   -0.53    1.34
  -6   7  -3    1.22    0.77
  -6  -7   3    0.39    1.37
  -6  -7  -4    0.15    0.63
   6  -7   4    1.79    0.75
  -6  -7  -4    0.30    0.61
  -6   7  -4    0.14    0.76
   6   7   4    0.22    0.61
   6   7   4    0.12    0.66
  -6   7  -4    0.39    0.61
  -6   7  -4    1.56    0.69
  -6  -7   4   -0.62    0.64
  -6  -7   4    2.45    0.97
  -6   7  -4    0.18    0.70
   6   7  -5   -1.17    0.76
   6  -7   5   -0.39    0.55
  -6  -7  -5   -0.40    0.51
  -6   7  -5    0.06    0.56
   6   7   5    0.57    0.63
  -6  -7   5    0.49    0.55
  -6  -7   5    0.69    0.68
   6   7   5   -0.18    0.50
  -6   7  -5    0.69    0.57
   6   7  -6    1.20    0.51
   6  -7   6   -0.55    0.45
  -6  -7  -6   -0.19    0.39
  -6  -7   6   -0.54    0.45
  -6   7  -6    0.46    0.53
   6   7   6    1.22    0.37
  -6  -7   6    0.31    0.60
  -6   7  -6    0.63    0.38
  -7   7   0   -0.21    0.90
  -7   7   0   -0.64    0.84
  -7  -7   0    0.17    0.65
   7   7   0    0.04    0.83
  -7  -7   0    0.07    0.81
  -7   7   1    0.61    1.15
  -7   7   1    1.20    0.65
   7   7   1    1.93    1.18
  -7   7  -1    0.94    1.44
   7   7   1    0.17    0.69
  -7   7  -1    1.40    0.97
  -7  -7   1    1.05    1.20
  -7   7   2   -0.51    0.67
  -7   7   2   -0.71    0.56
   7   7  -2   -0.90    0.78
  -7  -7  -2    0.39    0.78
  -7   7   2   -0.96    0.73
  -7   7  -2   -0.69    0.69
   7   7   2    0.56    0.73
  -7  -7   2   -1.10    0.66
  -7  -7   2    0.21    0.62
  -7   7  -2    0.53    0.81
   7   7   2    1.00    0.70
  -7   7  -2    0.96    0.86
  -7  -7  -3    1.32    0.64
   7   7  -3   -0.28    0.80
  -7  -7  -3    1.64    0.57
   7   7   3    1.08    0.66
  -7   7  -3    0.41    0.76
   7   7   3    2.46    0.62
  -7  -7   3    1.30    0.64
  -7   7  -3    0.40    0.67
  -7   7  -3    0.29    0.61
   7  -7   4    0.83    0.55
   7   7  -4    0.12    0.68
  -7  -7  -4    0.43    0.47
  -7  -7  -4    0.03    0.55
  -7   7  -4    0.09    0.53
   7   7   4    1.52    0.60
   7   7   4    0.36    0.48
  -7  -7   4    0.96    0.56
  -7   7  -4    0.34    0.61
   7   7  -5   -0.12    0.56
   7  -7   5    0.01    0.41
  -7  -7  -5    0.36    0.34
   7   7   5    0.52    0.41
  -7   7  -5   -0.09    0.43
  -7  -7   5    0.10    0.55
  -8   7   0    0.43    0.66
   8   7   0    0.48    0.65
  -8   7   0    0.58    0.60
  -8   7   0    0.41    0.64
  -8  -7   0    1.13    0.59
   8   7   0    0.92    0.60
  -8  -7  -1    0.46    0.63
  -8   7   1   -0.53    0.60
   8   7  -1   -0.67    0.65
  -8   7   1    0.15    0.65
  -8   7  -1    0.80    0.64
  -8  -7   1   -0.45    0.57
  -8   7  -1    0.06    0.60
   8   7   1   -0.28    0.54
  -8  -7   1   -0.52    0.60
  -8   7  -1   -0.36    0.66
   8   7   1    0.76    0.60
  -8  -7  -2    2.79    0.59
   8   7  -2    2.14    0.70
  -8   7   2    2.16    0.60
  -8   7   2    1.38    0.73
   8   7   2    2.42    0.62
  -8   7  -2    1.40    0.54
  -8  -7   2    1.79    0.54
  -8  -7   2    2.33    0.65
  -8   7  -2    1.23    0.59
  -8   7  -2    1.17    0.59
   8   7   2    1.91    0.58
  -8  -7  -3    0.44    0.45
   8   7  -3   -0.09    0.56
   8  -7   3   -0.11    0.74
   8   7   3    0.28    0.62
  -8   7  -3    0.39    0.47
  -8  -7   3    1.03    0.47
  -8   7  -3   -0.27    0.48
   8   7   3    0.48    0.54
  -8   7  -3    0.31    0.40
   8   7  -4    1.22    0.46
   8   7   4    1.28    0.39
  -8   7  -4    1.55    0.39
   9   7   0   -0.35    0.58
   9   7   0    0.19    0.61
  -9   7   0    0.75    0.40
  -9   7   0   -0.82    0.39
  -9  -7   0   -0.07    0.37
   9   7  -1   -0.28    0.44
  -9   7   1    1.13    0.55
  -9  -7  -1    0.12    0.38
  -9   7   1   -0.68    0.41
  -9   7  -1   -0.16    0.35
  -9   7  -1    0.69    0.38
  -9  -7   1    0.37    0.40
   9   7   1    0.44    0.46
  -9   7  -1   -0.44    0.37
  -9  -7  -2   -0.35    0.33
  -9   7  -2   -0.02    0.35
  -9   7  -2   -0.60    0.29
   0   8   0   47.00    3.70
   0   8   0   50.91    2.51
   0   8   0   48.24    2.59
   0   8   0   41.80    3.73
   0   8   0   43.26    2.53
   0   8   0   45.89    2.50
   0  -8   0   50.31    4.60
   0   8  -1   -0.60    1.33
   0   8  -1   -0.84    0.77
   0   8   1    0.88    1.01
   0   8  -1   -0.16    0.64
   0   8   1   -0.06    0.64
   0  -8  -1    0.56    1.64
   0   8   1   -0.52    0.65
   0   8   1   -1.08    1.25
   0   8   1    0.29    0.53
   0   8   1   -1.37    1.49
   0  -8   1    0.82    2.04
   0   8   1   -0.67    0.57
   0   8  -1   -0.01    0.65
   0   8  -1    2.28    1.84
   0   8  -1   -0.31    0.81
   0   8   2  321.81   14.18
   0   8   2  302.95   14.19
   0  -8   2  323.73   15.98
   0   8   2  298.14   14.19
   0   8   2  324.47   14.19
   0  -8  -2  313.23   16.07
   0   8  -2  313.34   14.24
   0   8  -2  316.61   14.27
   0   8  -2  299.94   14.18
   0   8   2  305.87   15.26
   0   8   2  289.86   14.28
   0   8   2  307.63   15.42
   0   8  -2  296.69   15.29
   0   8  -3   -3.07    1.79
   0   8   3    0.04    0.77
   0  -8   3    2.01    2.56
   0   8  -3    0.54    0.89
   0   8   3   -0.48    1.99
   0   8  -3    0.38    0.82
   0   8   3    0.69    0.71
   0   8   3    0.17    0.64
   0  -8  -3   -1.82    2.40
   0  -8   4   76.38    6.69
   0   8   4   88.42    4.36
   0   8  -4   88.45    4.56
   0   8   4   83.96    4.48
   0  -8   4   96.27    4.50
   0   8  -4   88.27    4.50
   0   8   4   87.35    4.44
   0   8   4   91.53    6.92
   0   8   4   90.69    4.58
   0  -8   4   87.58    4.48
   0  -8   5   -6.75    3.75
   0   8  -5    4.24    5.71
   0  -8   5    0.35    0.89
   0  -8   5    0.04    0.88
   0   8  -5    0.11    0.92
   0   8  -5    0.30    0.97
   0   8   5    0.59    0.75
   0   8   5    2.07    2.75
   0   8   5    1.02    0.91
   0   8   5    0.38    0.84
   0   8   5    0.55    0.84
   0  -8  -5    0.62    3.78
   0   8  -6  141.03    6.38
   0   8  -6  124.02    6.29
   0  -8   6  134.25    6.26
   0  -8   6  125.02    6.32
   0   8   6  134.87    6.61
   0   8   7   -0.24    0.49
   0   8  -7   -0.72    0.71
   0   8  -7    0.43    0.62
   0   8   7   -0.01    0.61
   0  -8   7   -0.54    0.64
   0   8   7   -0.34    0.61
   0  -8  -7    0.32    0.45
   0  -8   7    0.38    0.45
   0   8   8   22.54    1.21
   0   8   8   24.19    1.20
   0  -8   8   19.59    1.25
   1  -8   0    1.27    1.81
  -1   8   0    0.56    0.70
   1   8   0    0.89    0.70
  -1   8   0    0.41    0.64
   1   8   0    0.42    0.76
   1   8   0   -3.14    1.63
   1   8   0    1.17    0.73
  -1  -8   0   -2.74    2.01
  -1   8   0    0.18    0.65
  -1   8   0    0.59    1.41
  -1  -8   0    2.27    0.85
   1   8   0    0.49    0.88
   1   8   0    0.30    0.55
  -1   8   0    0.08    0.60
   1   8   0   -1.92    1.34
  -1   8   1  145.77    6.70
   1   8  -1  132.69    7.98
  -1   8   1  136.64    8.35
   1  -8   1  150.83    8.54
   1   8  -1  142.66    6.72
   1   8  -1  133.49    6.86
  -1   8   1  136.06    6.67
  -1   8   1  142.06    6.63
   1   8  -1  137.86    6.66
  -1   8   1  138.19    6.62
  -1   8   1  139.08    7.70
   1   8  -1  135.57    7.68
   1   8  -1  138.69    6.68
  -1  -8  -1  145.40    8.54
   1   8  -1  139.86    6.70
   1   8   1  145.21    6.65
  -1  -8   1  141.05    8.64
  -1   8  -1  145.30    6.75
   1   8   1  143.87    6.69
   1  -8  -1  151.56    8.36
   1   8   1  145.17    7.71
  -1  -8   1  139.81    6.67
   1   8   1  137.20    6.65
  -1   8  -1  143.11    6.65
   1   8   1  141.45    7.90
  -1   8  -1  142.78    6.71
   1   8   1  135.78    6.78
  -1   8  -1  138.82    7.81
  -1   8  -1  135.43    6.63
   1   8   1  146.26    6.66
  -1   8   2   13.98    2.24
  -1   8   2    9.33    1.11
   1   8  -2    5.78    2.26
   1   8  -2    8.15    1.95
  -1  -8  -2    9.42    2.66
  -1   8   2    7.87    1.62
  -1   8   2    9.85    1.56
  -1   8   2    8.93    1.26
  -1   8   2   12.79    1.17
  -1   8   2    8.69    1.23
   1  -8   2   12.24    2.62
   1   8  -2    9.80    1.33
   1   8  -2    9.53    1.37
  -1   8  -2    9.45    1.29
   1   8   2    7.83    1.88
   1   8   2    9.81    1.20
   1   8   2   12.79    1.25
  -1  -8   2   11.63    1.26
  -1   8  -2   13.03    1.49
  -1  -8   2   11.23    2.61
  -1   8  -2    9.44    1.40
   1   8   2   10.02    1.19
  -1   8  -2   10.30    1.43
   1   8   2   10.28    2.02
  -1   8  -2    8.68    2.09
   1  -8  -2   11.09    2.36
   1   8   2    8.04    1.39
   1   8  -3  139.32    7.01
  -1   8   3  151.08    8.46
  -1   8   3  150.41    7.07
  -1   8   3  151.97    7.02
  -1   8   3  139.74    7.06
   1   8  -3  134.00    8.60
  -1   8   3  156.28    7.00
  -1  -8  -3  132.69    9.20
   1  -8   3  157.14    9.24
   1   8  -3  149.94    7.12
  -1   8  -3  136.16    8.83
  -1   8  -3  142.37    7.63
   1   8   3  146.60    6.98
   1   8   3  155.20    8.66
  -1   8  -3  169.33    7.50
   1   8   3  143.50    7.03
  -1   8  -3  146.49    7.10
  -1   8  -3  145.71    7.07
  -1  -8   3  146.61    9.41
   1   8   3  151.15    7.02
   1  -8  -3  152.25   10.68
   1   8   3  151.81    7.14
  -1  -8   3  149.29    7.08
  -1   8   4   18.07    3.03
   1   8  -4   19.90    2.04
  -1   8   4   22.64    1.84
   1   8  -4   19.75    1.76
  -1   8   4   22.15    1.73
  -1   8   4   22.88    1.57
  -1   8   4   18.64    1.79
   1  -8   4   22.22    2.02
  -1   8  -4   21.78    3.73
   1   8   4   19.52    1.82
  -1   8  -4   22.62    1.97
  -1   8  -4   23.73    2.26
   1   8   4   21.52    1.65
  -1  -8   4   21.52    1.83
   1   8   4   21.78    1.77
   1   8   4   27.10    4.42
   1   8   4   21.19    1.82
  -1  -8   4   22.22    1.90
  -1   8   5   39.29    2.55
  -1   8   5   38.81    2.42
  -1  -8  -5   45.72    6.55
   1  -8   5   27.57    4.93
  -1   8   5   37.45    2.22
   1   8  -5   38.49    2.41
   1  -8   5   39.07    2.52
   1   8  -5   37.66    2.64
  -1   8   5   37.15    2.46
   1  -8   5   40.31    2.39
  -1   8   5   42.33    5.81
  -1   8  -5   38.13    2.57
   1   8   5   42.67    2.59
  -1   8  -5   46.25    7.02
   1   8   5   37.92    2.39
  -1  -8   5   41.43    2.46
   1   8   5   38.97    2.44
   1  -8  -5   37.35    7.85
   1   8   5   37.08    5.36
  -1  -8   5   41.56    2.49
  -1   8  -5   40.09    2.49
   1   8  -6    0.10    0.90
  -1   8   6    1.11    0.83
  -1   8   6    0.57    0.84
   1  -8   6    1.40    0.85
   1   8  -6    0.17    1.02
   1  -8   6    0.43    0.73
  -1   8   6    0.16    0.77
   1   8   6    1.02    0.82
  -1   8  -6    0.06    0.79
  -1   8  -6    0.26    0.67
   1   8   6    1.52    0.82
   1   8   6   -0.15    0.71
  -1  -8   6    0.45    0.79
  -1  -8   6   -0.21    0.69
   1   8  -7   48.68    2.45
  -1   8   7   47.07    2.42
   1  -8   7   45.33    2.41
  -1  -8  -7   43.74    2.31
  -1   8   7   47.54    2.44
  -1   8   7   46.12    2.45
   1  -8   7   45.22    2.31
  -1   8  -7   45.33    2.34
  -1   8  -7   42.39    2.39
  -1  -8   7   45.97    2.44
   1   8   7   45.35    2.39
  -1  -8   7   47.48    2.33
   1   8   7   46.14    2.44
   1   8   7   46.14    2.40
  -1   8   8   -0.23    0.25
   1   8  -8   -0.15    0.29
   1  -8   8   -0.22    0.41
  -1   8   8    0.42    0.35
   1   8   8    0.67    0.36
   2   8   0  317.61   14.87
  -2   8   0  328.92   14.87
  -2   8   0  327.23   16.00
  -2  -8   0  303.53   14.86
   2   8   0  323.40   15.01
  -2  -8   0  310.10   16.75
   2   8   0  335.17   16.25
   2   8   0  327.98   14.87
   2   8   0  325.09   15.81
   2  -8   0  356.30   16.84
  -2   8   0  310.32   14.87
  -2   8   0  324.54   14.92
  -2   8   0  325.94   14.87
  -2   8   0  326.36   14.94
  -2   8   1   14.36    1.26
  -2   8   1   14.57    1.32
   2   8  -1   17.24    2.72
  -2   8   1   15.49    2.82
  -2   8   1   15.67    1.43
  -2  -8  -1   10.51    2.76
   2  -8   1   14.99    3.06
   2   8  -1   13.64    1.33
   2   8  -1   16.63    1.73
  -2   8   1   13.11    1.45
   2   8  -1   15.47    2.41
   2  -8  -1   16.51    2.80
   2   8   1   16.49    1.58
  -2   8  -1   16.87    1.38
  -2   8  -1   18.23    1.61
   2   8   1   18.49    3.30
   2   8   1   13.65    2.66
  -2   8  -1   17.08    1.52
  -2   8  -1   15.80    1.41
  -2  -8   1   14.13    1.45
  -2   8  -1   14.25    1.36
  -2  -8   1   12.00    2.84
   2   8   1   13.98    1.29
  -2   8  -1   13.49    2.31
   2   8   1   14.92    1.56
   2   8   1   17.00    1.37
  -2   8   2  267.79   14.64
  -2   8   2  280.11   13.34
   2   8  -2  284.46   14.32
   2   8  -2  296.71   14.62
   2  -8   2  319.66   15.32
   2   8  -2  283.55   13.45
  -2  -8  -2  253.23   15.15
  -2   8   2  277.47   13.20
  -2   8   2  272.49   14.30
  -2   8   2  285.15   13.16
   2   8  -2  287.29   13.31
  -2   8  -2  306.95   13.26
   2   8   2  298.81   13.17
   2  -8  -2  310.64   14.95
  -2  -8   2  276.86   13.16
  -2  -8   2  251.14   16.30
   2   8   2  268.06   13.38
   2   8   2  288.40   13.15
  -2   8  -2  288.80   13.21
  -2   8  -2  288.07   13.16
  -2   8  -2  285.36   14.66
   2   8   2  296.24   14.55
   2   8   2  293.48   13.17
  -2   8   3   17.11    1.39
   2   8  -3    6.26    4.16
   2  -8   3   19.40    3.45
   2  -8   3   16.11    3.15
  -2   8   3   14.64    1.58
  -2   8   3   15.95    1.35
  -2  -8  -3    8.83    3.13
   2   8  -3   15.54    1.64
  -2   8   3   15.20    1.40
  -2   8   3   17.12    1.66
  -2   8   3   14.30    2.75
  -2   8  -3   16.04    2.85
   2   8   3   15.26    1.50
   2  -8  -3   10.53    2.87
  -2   8  -3   13.88    1.69
  -2  -8   3    8.25    3.51
   2   8   3   16.32    1.62
  -2   8  -3   13.72    1.59
   2   8   3   15.78    1.46
   2   8   3   15.71    1.57
   2   8   3    8.95    2.43
  -2   8  -3   15.81    1.69
  -2   8  -3   16.49    1.59
  -2  -8   3   14.49    1.56
   2  -8   4   61.16    8.51
  -2  -8  -4   51.56    3.59
  -2   8   4   63.33    5.90
  -2   8   4   58.93    3.39
   2   8  -4   63.25    3.48
   2  -8   4   58.56    3.42
  -2   8   4   60.23    3.11
  -2   8   4   63.24    3.28
  -2   8   4   61.61    3.33
  -2  -8   4   60.84    3.32
   2   8   4   60.95    5.85
  -2   8  -4   49.43    6.29
  -2   8  -4   60.62    3.43
  -2   8  -4   61.16    3.46
   2   8   4   61.10    3.34
  -2   8  -4   66.95    3.33
  -2   8  -4   61.89    3.32
   2   8   4   58.32    3.30
   2   8   4   64.68    3.28
   2   8  -5    5.57    1.13
  -2   8   5    3.07    0.90
  -2   8   5    4.69    1.07
  -2   8   5    4.43    0.72
   2  -8   5   -4.18    4.71
  -2   8   5    5.92    3.78
  -2  -8  -5   -3.00    3.82
   2  -8   5    6.16    1.06
  -2   8   5    3.57    0.86
   2   8   5    5.05    1.00
   2  -8  -5   -3.85    4.52
   2   8   5    4.26    0.89
   2   8   5    5.53    0.96
   2   8   5    7.75    2.95
  -2  -8   5    5.03    0.99
  -2   8  -5    7.41    1.13
  -2  -8   5    5.42    1.02
  -2   8  -5    8.34    3.86
  -2   8  -5    3.70    1.16
  -2   8   6   27.97    1.99
   2  -8   6   27.06    1.78
   2  -8   6   28.70    1.90
   2   8  -6   26.68    2.11
  -2   8   6   28.75    1.99
  -2   8   6   26.44    1.85
  -2  -8   6   27.23    2.13
   2   8   6   27.11    1.85
  -2  -8   6   28.47    1.83
   2   8   6   26.54    1.95
   2   8   6   30.08    2.21
  -2   8  -6   25.84    1.90
   2   8   6   26.72    1.90
  -2   8  -6   30.18    1.73
  -2   8   7    0.40    0.54
   2  -8   7   -0.28    0.49
  -2   8   7   -0.54    0.49
  -2   8   7   -0.67    0.50
   2   8  -7   -0.06    0.55
  -2  -8  -7   -0.28    0.42
   2   8   7   -0.19    0.51
  -2   8  -7    0.46    0.62
  -2  -8   7    0.06    0.57
  -2  -8   7    0.57    0.46
  -2   8   8   12.30    0.87
   2   8  -8   11.98    0.77
  -2   8   8   12.51    0.79
   2   8   8   14.32    0.93
   3   8   0   -0.68    0.53
  -3   8   0    2.28    1.75
   3   8   0    0.70    0.88
   3   8   0   -0.03    2.08
  -3   8   0   -0.60    0.79
   3   8   0   -0.85    0.84
  -3  -8   0    0.77    0.77
  -3   8   0   -0.95    0.74
  -3  -8   0   -2.68    2.41
  -3   8   1  214.05   11.06
   3   8  -1  205.56   11.18
  -3   8   1  211.04    9.92
  -3  -8  -1  175.32   12.00
  -3   8   1  204.21    9.79
  -3   8   1  207.79    9.76
  -3   8   1  199.41    9.71
  -3  -8   1  203.35    9.71
  -3   8  -1  211.28    9.78
   3   8   1  186.10    9.91
   3   8   1  221.46   11.28
   3   8   1  219.09    9.75
   3   8   1  205.70    9.70
  -3   8  -1  224.04   10.01
  -3  -8   1  189.58   12.01
  -3   8  -1  217.85    9.97
  -3   8  -1  223.46   11.35
   3  -8  -1  235.03   12.11
  -3   8  -1  218.96    9.80
  -3   8   2   15.61    1.49
  -3  -8  -2   14.85    1.87
   3   8  -2   16.35    2.92
  -3   8   2   16.90    1.43
   3   8  -2   15.58    1.52
  -3  -8  -2   12.27    3.43
   3   8  -2   15.71    1.72
  -3   8   2   15.53    1.41
  -3   8   2   16.34    1.62
  -3   8   2   15.77    3.11
  -3   8  -2   21.40    3.92
   3   8   2   14.14    1.58
  -3   8  -2   16.79    1.49
  -3   8  -2   16.40    1.62
  -3   8  -2   16.86    1.71
  -3   8  -2   14.32    1.64
   3  -8  -2   14.61    2.76
  -3  -8   2   17.12    1.47
  -3  -8   2   17.08    2.05
   3   8   2   20.13    3.60
   3   8   2   15.67    1.42
   3   8   2   15.14    1.50
   3  -8   3   84.97    9.90
  -3   8   3   78.80    3.94
  -3  -8  -3   65.41    9.79
  -3   8   3   81.08    3.94
   3   8  -3   78.28    4.12
   3   8  -3   80.99    8.30
   3  -8   3   71.81    4.23
   3  -8   3   86.81    8.34
  -3   8   3   77.01    4.19
  -3   8   3   79.74    4.00
  -3  -8  -3   75.56    4.27
   3   8   3   78.31    4.13
  -3   8  -3   83.22    4.19
  -3  -8   3   82.50    4.45
  -3   8  -3   71.96    6.59
  -3  -8   3   79.53    4.07
  -3   8  -3   80.51    4.12
  -3   8  -3   83.68    4.16
   3   8   3   82.52    4.04
   3   8   3   81.32    5.89
   3   8   3   81.25    4.14
   3  -8   4    0.75    1.01
   3   8  -4    1.71    4.25
  -3   8   4   -0.74    0.60
  -3   8   4    1.37    0.82
  -3  -8  -4    1.06    1.07
  -3   8   4   -1.25    0.74
  -3   8   4    0.93    0.90
  -3  -8  -4   -9.81    7.27
   3   8  -4    0.38    0.95
   3  -8   4   -1.40    4.35
  -3   8  -4    2.40    3.30
   3   8   4    1.17    0.84
   3   8   4   -1.55    2.70
  -3   8  -4    0.30    0.88
   3   8   4    0.46    0.89
   3   8   4   -0.27    0.75
  -3   8  -4   -0.61    1.06
  -3   8  -4   -0.65    0.88
  -3  -8   4    0.85    0.88
  -3   8   5   41.44    2.52
  -3   8   5   43.05    2.64
   3  -8   5   39.05    2.68
  -3   8   5   53.35    3.46
  -3   8   5   41.44    2.68
   3   8  -5   45.56    2.80
   3   8   5   46.24    2.52
   3   8   5   46.09    3.19
   3   8   5   43.64    2.60
  -3  -8   5   43.76    2.56
  -3   8  -5   44.12    2.70
  -3   8   6    3.44    0.69
  -3   8   6    2.98    0.72
   3  -8   6    2.42    0.68
   3   8  -6    1.84    0.93
  -3   8   6    2.81    0.75
   3  -8   6    3.07    0.63
  -3  -8  -6    2.03    0.59
   3   8   6    2.78    0.73
  -3   8  -6    3.15    0.79
  -3  -8   6    4.24    0.74
   3   8   6    2.27    0.78
   3   8   6    3.68    0.76
   3   8   6    3.86    0.69
  -3  -8   6    3.72    0.77
  -3   8   7   13.10    1.41
   3   8  -7   14.22    1.06
  -3   8   7   12.87    0.96
  -3   8   7   13.27    1.03
  -3  -8  -7   13.22    0.91
   3   8   7   12.83    1.02
  -3   8  -7   12.92    1.08
  -3  -8   7   12.98    0.89
  -3  -8   7   12.43    1.18
  -4   8   0  128.42    5.87
  -4  -8   0  118.22    5.80
  -4  -8   0  112.09    6.11
  -4   8   0  129.65    7.52
  -4   8   0  119.85    5.89
  -4   8   0  127.98    5.87
   4   8   0  123.08    5.99
   4   8   0  122.15    7.74
   4   8   0  121.76    5.79
  -4   8   0  125.47    6.01
  -4  -8   0   99.83    8.68
   4   8  -1   18.63    1.98
  -4   8   1   16.78    3.48
  -4   8   1   20.80    1.75
   4   8  -1   19.55    3.61
  -4  -8  -1   17.00    2.06
  -4  -8  -1   17.39    5.30
   4   8  -1   20.08    1.57
  -4   8   1   19.42    1.55
  -4   8   1   20.22    1.67
  -4   8   1   22.26    1.63
  -4  -8   1   20.20    2.13
   4   8   1   19.86    1.76
   4   8   1   20.29    1.62
  -4   8  -1   22.72    1.68
  -4   8  -1   23.02    4.29
  -4  -8   1   11.58    3.89
   4   8   1   22.18    3.93
  -4   8  -1   20.45    1.73
  -4   8  -1   20.17    1.77
  -4  -8   1   19.89    1.57
  -4   8  -1   19.13    1.97
   4   8  -2   45.69    2.65
  -4   8   2   47.93    2.89
  -4  -8  -2   38.26    6.38
  -4   8   2   48.10    2.60
  -4   8   2   41.24    4.45
  -4   8   2   48.10    2.65
   4   8  -2   47.51    2.90
  -4   8   2   47.47    2.59
   4   8  -2   46.50    5.42
  -4  -8  -2   46.07    2.99
  -4   8  -2   50.26    2.79
   4   8   2   50.22    4.99
   4   8   2   46.40    2.74
  -4   8  -2   44.99    2.86
   4   8   2   47.89    2.71
  -4  -8   2   45.07    6.75
  -4   8  -2   48.31    2.85
  -4  -8   2   47.68    2.63
  -4  -8   2   45.52    3.04
  -4   8  -2   45.64    5.19
  -4   8  -2   49.86    2.73
  -4   8   3    0.77    0.94
   4   8  -3    7.12    3.61
  -4   8   3    0.94    0.67
  -4  -8  -3    3.71    3.58
  -4   8   3    0.98    0.67
  -4  -8  -3    1.35    0.87
   4   8  -3    2.95    0.83
   4  -8   3    4.15    1.16
   4  -8   3   -0.87    3.91
  -4   8   3    1.98    0.80
  -4   8  -3   -0.11    0.93
  -4  -8   3    2.20    0.89
   4   8   3    2.32    1.12
  -4  -8   3    2.17    1.10
   4   8   3    2.30    2.64
   4   8   3    2.39    0.90
  -4   8  -3    0.90    0.94
   4  -8  -3    0.97    4.92
  -4   8  -3    2.42    0.89
  -4   8  -3   -1.20    2.80
  -4   8  -3    0.80    0.87
  -4   8   4   83.65    4.32
  -4   8   4   89.95    4.60
   4  -8   4   93.60    4.58
   4   8  -4   90.14    4.54
   4   8  -4   99.83   10.19
  -4   8   4   89.95    4.49
  -4  -8  -4   86.80    4.51
  -4   8  -4   92.23    4.59
  -4   8  -4   70.49    7.55
   4   8   4   88.29    4.52
   4   8   4   82.95    7.21
   4   8   4   96.68    4.48
  -4   8  -4   95.41    4.47
  -4   8  -4   87.59    4.52
  -4  -8   4   93.54    4.49
  -4   8   5   10.43    1.24
   4   8  -5   10.72    1.39
  -4  -8  -5    7.99    1.18
  -4   8   5    7.69    0.89
  -4   8   5    7.97    1.03
   4  -8   5    9.59    1.41
   4   8   5    8.90    1.18
  -4   8  -5    9.04    0.94
  -4  -8   5   10.17    1.61
  -4   8  -5    8.83    1.43
   4   8   5    8.37    1.28
  -4  -8   5    7.56    1.00
   4  -8   6   39.00    2.11
  -4  -8  -6   40.89    2.12
  -4   8   6   37.59    2.12
  -4   8   6   40.31    2.18
  -4   8   6   39.88    2.13
   4   8  -6   38.59    2.26
   4   8  -6   38.66    2.27
   4  -8   6   37.16    2.06
   4   8   6   39.80    2.13
  -4  -8   6   40.05    2.13
   4   8   6   42.55    2.33
  -4   8  -6   39.79    2.16
  -4  -8   6   34.61    2.41
   4   8  -7    0.01    0.41
   4  -8   7   -0.26    0.34
  -4   8   7    0.85    0.43
  -4  -8  -7    0.30    0.34
  -4  -8   7    0.48    0.29
   4   8   7    0.29    0.32
  -4   8  -7    0.68    0.37
  -5  -8   0   -0.02    0.71
  -5   8   0    1.47    2.99
  -5  -8   0   -0.09    3.61
  -5  -8   0    0.79    1.03
   5   8   0   -2.27    2.37
  -5   8   0    0.23    1.01
  -5   8   0   -0.30    0.78
  -5   8   0   -0.80    0.81
  -5   8   0   -0.63    0.91
   5   8   0    0.73    0.82
  -5   8   1   65.90    3.24
  -5  -8  -1   66.94    3.41
   5   8  -1   65.47    3.51
  -5   8   1   48.91    5.92
  -5   8   1   61.08    3.40
   5   8  -1   63.36    3.26
   5   8  -1   56.39    6.12
  -5   8   1   64.31    3.27
  -5   8   1   62.80    3.35
  -5  -8  -1   56.07    3.59
   5   8   1   49.93    7.45
  -5  -8   1   62.29    3.21
  -5   8  -1   63.50    3.41
  -5   8  -1   51.35    5.91
  -5   8  -1   64.30    3.35
  -5  -8   1   58.46    3.59
  -5   8  -1   64.11    3.32
   5   8   1   65.26    3.41
  -5   8  -1   61.01    3.54
  -5   8   2    2.48    0.86
  -5   8   2   -0.92    3.16
  -5   8   2    1.15    0.78
   5   8  -2    0.43    1.03
  -5  -8  -2   -0.14    0.99
   5   8  -2    1.10    3.56
   5   8  -2    0.15    0.76
  -5  -8  -2   -3.64    4.38
  -5   8   2    1.86    0.76
  -5   8   2   -0.94    0.65
  -5   8  -2    0.88    0.89
  -5  -8   2   -4.04    4.41
   5   8   2   -1.52    2.70
  -5   8  -2   -4.51    2.77
  -5  -8   2    1.19    0.74
  -5   8  -2    0.64    0.96
  -5   8  -2    0.69    1.02
  -5  -8   2   -0.88    0.96
   5   8   2    0.29    0.81
   5  -8  -2    0.62    3.52
  -5   8  -2    1.61    0.97
  -5   8   3   53.28    2.70
  -5  -8  -3   52.57    2.75
   5   8  -3   36.81    7.19
  -5  -8  -3   54.27    2.97
  -5   8   3   48.25    2.72
   5   8  -3   49.27    2.86
  -5   8   3   47.96    2.79
   5  -8   3   52.72    3.00
  -5  -8  -3   52.25   10.95
  -5   8  -3   54.60    2.86
  -5   8  -3   51.11    3.01
  -5   8  -3   54.74    2.90
  -5   8  -3   47.06    6.88
  -5   8  -3   53.78    2.95
   5   8   3   51.96    2.96
   5   8   3   51.86    2.82
  -5  -8   3   54.85    2.87
  -5  -8   3   51.03    3.12
   5   8   3   52.53    6.22
  -5   8   4    0.69    0.57
  -5  -8  -4    0.76    0.71
   5  -8   4    0.05    0.79
  -5   8   4    0.61    0.71
   5   8  -4   -0.17    0.75
  -5  -8  -4   -0.11    0.62
  -5  -8   4    0.64    0.79
   5   8   4   -0.36    0.73
   5   8   4    0.46    0.68
  -5   8  -4   -0.04    0.75
  -5   8  -4    0.85    0.70
  -5   8  -4   -1.22    0.78
   5   8  -5   71.24    3.60
  -5   8   5   73.80    3.57
  -5  -8  -5   72.58    3.50
   5  -8   5   71.57    3.57
  -5   8   5   63.34    3.86
   5   8   5   72.05    3.57
   5   8   5   73.41    3.50
  -5  -8   5   72.43    3.55
  -5   8  -5   72.14    3.57
  -5   8  -5   71.04    3.52
  -5  -8  -6   -0.17    0.39
   5   8  -6    0.26    0.51
   5   8  -6   -0.80    0.52
   5  -8   6    0.17    0.40
   5  -8   6    0.45    0.45
  -5   8  -6    0.27    0.44
  -5  -8   6   -0.73    0.41
   5   8   6   -0.94    0.50
   5   8   6    0.89    0.53
  -6   8   0  115.74    5.64
  -6   8   0  118.68    5.85
  -6  -8   0  124.93    5.86
   6   8   0  108.28    8.34
   6   8   0  120.85    5.81
  -6   8   0  115.56    5.73
  -6  -8   0  124.81   10.09
  -6  -8   0  108.98    5.57
  -6   8   0  115.50    5.69
   6   8  -1    2.86    0.92
   6   8  -1    0.95    7.09
  -6   8   1    4.30    0.90
  -6  -8  -1    8.09    6.74
  -6  -8  -1    5.03    1.06
  -6   8   1    3.93    0.89
  -6   8   1    4.38    0.98
  -6   8  -1    3.18    0.97
   6   8   1    3.31    0.98
  -6  -8   1    4.82    1.14
  -6   8  -1    3.43    0.90
   6   8   1    2.67    4.93
  -6   8  -1    4.19    1.10
  -6   8  -1    2.78    0.86
  -6  -8   1    3.46    0.76
  -6   8   2   26.14    2.09
  -6   8   2   25.87    1.81
  -6  -8  -2   27.40    2.05
   6   8  -2   25.84    2.00
  -6   8   2   26.95    1.94
  -6   8   2   27.20    2.37
  -6  -8  -2   26.89    1.64
  -6   8  -2   26.03    2.00
  -6   8  -2   28.42    1.88
  -6   8  -2   26.83    1.98
   6   8   2   25.96    1.96
  -6  -8   2   30.54    2.68
   6   8   2   28.56    1.83
  -6  -8   2   30.36    2.41
  -6   8  -2   24.36    2.09
  -6   8   3    0.71    0.69
  -6  -8  -3   -0.56    0.66
   6   8  -3    0.49    0.85
  -6  -8  -3    0.38    0.55
  -6   8   3    0.62    0.56
   6  -8   3    1.59    0.86
  -6   8  -3    0.55    0.68
   6   8   3    0.76    0.72
   6   8   3    2.00    0.73
  -6   8  -3    1.85    0.87
  -6   8  -3   -0.41    0.78
  -6   8  -3   -0.07    0.63
  -6  -8   3    0.08    0.66
  -6  -8   3   -1.27    0.70
   6   8  -4   52.09    2.76
  -6  -8  -4   48.25    2.46
  -6  -8  -4   45.86    2.59
   6  -8   4   50.22    2.58
   6   8   4   45.82    2.53
  -6   8  -4   47.68    2.58
  -6  -8   4   46.16    2.53
  -6   8  -4   45.86    2.71
  -6   8  -4   51.75    2.55
   6   8   4   47.78    2.48
  -6  -8  -5    1.09    0.44
   6   8  -5    1.43    0.58
   6   8   5   -0.19    0.63
  -6   8  -5    1.50    0.67
   6   8   5   -0.18    0.47
  -6   8  -5    0.99    0.47
  -6  -8   5    0.62    0.52
  -6  -8  -6    7.61    0.59
  -6  -8   6    9.37    0.66
   7   8   0   -0.45    0.73
  -7   8   0   -0.14    0.83
  -7   8   0   -0.60    0.70
  -7   8   0   -0.24    0.71
  -7  -8   0   -0.53    0.68
  -7  -8  -1   79.42    3.82
  -7   8   1   66.59    3.87
  -7   8   1   74.78    3.73
   7   8  -1   70.76    3.83
  -7   8   1   72.32    3.80
  -7   8  -1   74.12    3.73
   7   8   1   75.19    3.77
  -7  -8   1   82.79    3.82
   7   8   1   75.81    3.71
  -7  -8   1   72.51    3.80
  -7   8  -1   71.39    3.78
  -7   8  -1   78.39    3.87
  -7   8   2   -0.02    0.71
  -7  -8  -2    0.55    0.63
  -7   8   2    0.01    0.52
   7   8  -2    0.12    0.74
  -7   8   2    0.05    0.58
  -7   8  -2    0.33    0.63
   7   8   2    0.63    0.67
  -7   8  -2    1.49    0.68
  -7   8  -2   -0.60    0.74
  -7  -8   2    0.30    0.55
  -7  -8   2    1.51    0.61
   7   8   2   -0.09    0.68
   7  -8   3   29.51    1.84
  -7  -8  -3   27.94    1.72
  -7  -8  -3   30.72    1.69
   7   8  -3   30.15    1.90
   7   8   3   29.32    1.76
  -7   8  -3   30.26    1.84
  -7   8  -3   29.84    1.73
  -7   8  -3   31.25    1.68
  -7  -8   3   29.78    1.73
   7   8   3   28.41    1.77
   7   8  -4    2.42    0.58
   7  -8   4    2.44    0.61
  -7  -8  -4    2.53    0.43
  -7  -8  -4    2.50    0.78
  -7  -8   4    1.16    0.44
   7   8   4    2.64    0.62
  -7   8  -4    1.65    0.69
   7   8   4    2.94    0.51
  -7   8  -4    1.37    0.48
   7   8  -5   15.95    1.09
  -7  -8   5   16.69    1.03
  -8   8   0   22.31    1.35
  -8   8   0   20.53    1.33
  -8   8   0   19.80    1.42
   8   8   0   24.28    1.45
  -8  -8   0   23.25    1.41
  -8  -8  -1    0.00    0.50
   8   8  -1    0.61    0.53
  -8   8   1   -0.07    0.46
  -8   8   1    0.43    0.55
  -8   8   1   -0.15    0.48
   8   8   1    0.97    0.53
  -8  -8   1    0.59    0.47
  -8   8  -1    0.22    0.54
  -8   8  -1    0.43    0.49
  -8   8  -1    0.60    0.47
  -8  -8   1    0.14    0.71
  -8  -8  -2   25.22    1.35
   8   8  -2   25.35    1.46
  -8   8   2   20.53    1.41
  -8   8  -2   24.33    1.38
  -8   8  -2   21.93    1.31
   8   8   2   25.56    1.42
  -8  -8   2   23.35    1.35
  -8   8  -2   22.42    1.36
  -8  -8   2   20.73    1.37
   8   8  -3    8.52    0.82
  -8  -8  -3    8.47    0.79
  -8   8  -3    7.94    0.72
  -8   8  -3   10.78    0.78
  -8  -8   3    9.06    0.72
  -9  -8   0   -0.38    0.28
  -9   8   0    0.43    0.45
  -9  -8  -1    9.27    0.66
  -9   8  -1    8.94    0.66
   0   9   0    1.39    0.71
   0  -9   0    2.75    2.28
   0   9   0   -2.50    1.58
   0   9   0    1.18    2.16
   0   9   0    0.31    0.69
   0   9  -1   16.65    1.51
   0   9   1   17.77    1.53
   0   9   1   19.85    1.99
   0   9  -1   19.68    1.79
   0   9   1   17.81    3.06
   0   9   1   16.65    1.45
   0  -9  -1   15.47    3.21
   0   9  -1   11.85    2.22
   0  -9   1   14.31    2.99
   0   9   1   15.68    1.75
   0   9  -1   18.04    1.75
   0   9  -2    0.26    0.82
   0   9   2   -2.23    2.40
   0   9  -2    2.16    2.19
   0  -9   2   -0.80    2.82
   0   9   2    0.13    0.70
   0   9   2   -0.45    0.67
   0   9   2   -0.79    0.81
   0   9  -2    0.32    0.76
   0   9   2    0.17    0.70
   0   9   2   -0.64    0.66
   0   9   2    1.88    1.76
   0  -9  -2   -1.52    2.41
   0   9  -2    0.70    0.89
   0   9   3   17.11    1.79
   0   9  -3   19.05    1.91
   0  -9   3    8.55    5.25
   0   9   3   19.86    3.30
   0   9   3   20.96    1.73
   0   9  -3   14.67    3.15
   0   9  -3   19.96    1.67
   0   9   3   19.86    1.57
   0   9   3   20.46    1.66
   0  -9   3   20.90    1.78
   0   9   4    0.58    0.91
   0  -9   4   -0.74    0.82
   0   9  -4    3.07    3.49
   0   9   4   -0.67    0.72
   0   9   4   -2.13    3.05
   0   9  -4   -0.80    0.84
   0   9  -4    1.09    1.05
   0   9   4    0.90    0.92
   0   9   4    0.92    0.99
   0   9   5    1.15    0.89
   0   9  -5    0.52    0.89
   0   9   5    0.12    0.73
   0  -9   5    0.89    1.05
   0  -9   5    0.32    0.88
   0   9   5    0.39    0.80
   0   9   5   -0.08    0.75
   0   9   6    0.50    0.65
   0  -9   6   -0.82    0.76
   0   9  -6    0.88    0.72
   0  -9   6    1.05    0.61
   0   9   6   -0.70    0.71
   0   9  -6   -0.51    0.66
   0   9   6    0.22    0.66
   0   9  -7    0.75    0.50
   0   9   7    1.09    0.46
   0  -9  -7    0.62    0.56
   0   9   7    0.80    0.47
   0  -9   7    1.18    0.39
   0   9   7    0.44    0.39
   0  -9   7    0.29    0.85
   1  -9   0   -2.34    2.24
  -1   9   0    0.78    0.88
   1   9   0   -0.96    2.11
  -1   9   0    0.32    0.76
   1   9   0    0.94    0.75
   1   9   0   -0.76    2.21
   1   9   0    0.08    0.72
   1   9   0   -0.34    0.74
  -1  -9   0   -2.59    2.46
  -1   9   0    0.80    1.70
  -1  -9   0   -0.14    0.86
   1   9   0    0.68    0.91
  -1   9   1    0.70    0.83
  -1   9   1    0.18    0.71
  -1   9   1    0.55    0.68
  -1   9   1    0.37    0.67
  -1  -9  -1   -2.05    2.33
   1   9  -1    1.17    0.89
   1   9  -1   -0.03    0.70
   1   9  -1    3.03    2.54
   1  -9   1    1.32    2.48
   1   9  -1    0.47    0.78
  -1   9   1    2.49    1.73
  -1   9  -1   -1.13    1.80
  -1   9  -1    2.30    0.76
   1   9   1    0.03    0.83
   1  -9  -1    2.96    2.58
   1   9   1    1.30    1.72
   1   9   1    1.23    0.67
  -1  -9   1    1.48    2.53
  -1   9  -1    0.22    0.83
  -1   9  -1    0.97    0.74
   1   9   1    0.51    2.14
  -1   9   2   23.96    1.99
   1   9  -2   24.97    1.86
  -1   9   2   25.62    1.80
  -1   9   2   26.99    1.83
  -1   9   2   25.14    1.75
   1  -9   2   33.86    5.21
  -1   9   2   23.43    1.83
   1   9  -2   23.10    4.36
  -1  -9  -2   21.32    3.78
   1   9  -2   25.09    1.97
  -1   9   2   24.99    3.44
  -1   9   2   28.72    4.36
  -1   9  -2   27.75    1.93
   1   9   2   25.94    1.83
  -1  -9   2   26.68    1.85
  -1   9  -2   27.83    1.89
  -1  -9   2   21.74    3.64
  -1   9  -2   26.98    1.89
   1   9   2   24.98    4.34
  -1   9  -2   28.33    4.25
  -1   9  -2   25.22    1.97
   1  -9  -2   25.83    4.93
   1   9   2   26.31    1.77
   1   9   2   23.55    1.81
   1   9   2   25.38    1.97
  -1   9   3    2.98    0.88
   1   9  -3    1.77    1.02
  -1  -9  -3   -1.33    3.24
  -1   9   3    2.36    0.74
   1   9  -3    1.73    4.38
   1  -9   3    1.19    3.28
  -1   9   3    4.03    0.98
  -1   9   3    1.40    2.92
  -1   9   3    2.61    0.81
  -1   9   3    2.18    0.88
   1   9  -3    3.05    0.93
  -1   9  -3    4.04    2.64
  -1  -9   3    2.28    0.93
  -1   9  -3    0.41    0.87
   1   9   3    0.04    2.77
  -1   9  -3    1.57    0.95
  -1   9  -3    2.17    0.94
   1   9   3    2.30    0.86
   1   9   3    2.33    0.80
   1   9   3    2.00    0.97
   1  -9  -3    3.09    3.40
   1   9   3    1.97    0.82
  -1  -9   3    7.28    3.89
  -1  -9  -4    0.02    1.27
  -1   9   4    0.63    0.78
  -1   9   4   -2.71    3.33
   1   9  -4    0.15    0.86
   1   9  -4    0.92    1.10
   1  -9   4    0.88    0.92
  -1   9   4    0.33    0.85
  -1   9   4   -0.69    0.88
  -1   9   4   -0.46    0.64
   1   9   4   -0.12    0.87
  -1  -9   4    0.80    0.96
  -1   9  -4    0.35    0.91
   1   9   4   -3.07    2.75
   1   9   4   -0.04    0.86
   1   9   4    0.02    0.77
  -1   9  -4   -1.93    3.33
   1   9   4    0.41    0.83
  -1   9  -4    0.96    0.99
  -1   9   5   19.27    1.50
   1   9  -5   15.27    1.78
   1   9  -5   15.89    1.64
   1  -9   5   20.20    1.65
   1  -9   5   17.02    1.86
  -1   9   5   17.07    1.59
  -1   9   5   19.07    1.57
  -1   9   5   15.11    2.04
   1   9   5   15.46    1.55
  -1  -9   5   18.11    1.62
   1   9   5   16.23    1.60
  -1   9  -5   18.67    1.82
   1   9   5   20.41    1.77
   1  -9   6    0.48    0.62
  -1   9   6    1.33    0.74
   1   9  -6    1.00    0.79
  -1   9   6    0.26    0.72
   1  -9   6    0.44    0.84
  -1   9   6   -0.08    0.68
   1   9   6   -0.47    0.66
  -1   9  -6   -0.25    0.56
   1   9   6    0.15    0.63
  -1   9  -6    0.15    0.68
  -1  -9   6    0.90    0.98
   1   9   6    0.48    0.70
  -1  -9   6   -0.32    0.61
  -1  -9  -7    1.45    0.42
   1  -9   7    0.65    0.53
  -1   9   7    0.91    0.48
   1   9  -7    0.87    0.48
  -1   9   7    1.72    0.46
   1  -9   7    1.62    0.41
  -1   9   7    0.67    0.44
  -1   9  -7    1.54    0.51
   1   9   7    1.71    0.43
   1   9   7    0.89    0.46
   1   9   7    1.52    0.48
  -1  -9   7    0.60    0.50
  -1   9  -7    1.89    0.63
   2   9   0    4.54    1.02
  -2  -9   0    4.82    0.89
   2  -9   0    5.99    3.09
  -2  -9   0    5.90    3.10
   2   9   0    2.27    2.35
  -2   9   0    3.23    2.19
  -2   9   0    4.47    0.88
   2   9   0    3.96    0.81
   2   9   0    6.62    2.27
  -2   9   0    3.76    0.83
  -2   9   0    6.00    0.92
   2   9   0    3.89    0.94
  -2   9   0    5.91    1.03
  -2   9   1   19.29    1.53
   2  -9   1   17.59    3.42
  -2   9   1   22.21    3.54
  -2   9   1   21.43    1.67
   2   9  -1   19.77    1.82
  -2   9   1   19.91    1.76
  -2  -9  -1   28.80    5.57
  -2   9   1   20.53    1.71
   2   9  -1   18.54    1.62
   2   9  -1   17.11    3.37
   2   9   1   15.55    2.30
   2  -9  -1   18.08    3.41
  -2   9  -1   19.28    1.65
   2   9   1   25.07    3.88
  -2   9  -1   17.43    1.82
   2   9   1   20.15    1.58
  -2   9  -1   22.40    1.67
   2   9   1   21.58    1.77
   2   9   1   19.92    1.59
  -2  -9   1   17.76    3.57
  -2   9  -1   17.59    1.67
  -2  -9   1   17.88    1.62
  -2   9   2    8.98    1.32
  -2   9   2    9.25    1.42
   2   9  -2   10.36    1.69
  -2   9   2    8.63    1.23
  -2   9   2    8.46    1.26
   2   9  -2    9.45    1.49
   2   9  -2    7.59    3.41
  -2  -9   2    8.93    5.22
  -2   9  -2    9.18    1.39
   2   9   2    6.62    1.05
  -2   9  -2    9.98    1.24
  -2   9  -2    7.32    1.05
  -2  -9   2    8.10    1.00
   2   9   2    7.59    0.96
   2  -9  -2    4.34    4.02
   2   9   2   10.38    1.16
   2   9   2    9.86    1.28
  -2   9  -2    9.67    1.45
  -2   9   3   -0.18    0.66
   2   9  -3    2.59    1.36
  -2   9   3    1.25    0.82
  -2  -9  -3   -0.24    1.05
  -2   9   3    1.31    0.87
  -2  -9  -3   -1.57    3.77
  -2   9   3    0.24    0.80
   2   9  -3    0.58    1.04
  -2   9   3    1.59    0.89
   2   9   3    0.85    0.90
  -2   9  -3    2.16    0.89
  -2   9  -3    1.75    0.92
   2  -9  -3    3.62    4.01
   2   9   3    0.83    2.58
  -2   9  -3   -1.77    2.68
   2   9   3    0.84    0.76
   2   9   3    0.69    0.80
  -2  -9   3    1.83    0.91
   2   9   3    2.28    0.88
  -2  -9   3    0.10    4.42
  -2   9  -3    1.27    0.82
  -2   9  -3    0.47    0.93
  -2   9   4    1.71    0.94
  -2  -9  -4   -4.91    4.00
  -2  -9  -4    2.40    1.11
  -2   9   4    0.32    0.77
  -2   9   4    1.69    0.73
  -2   9   4    2.05    0.91
   2   9  -4    0.62    1.06
  -2  -9   4    0.59    0.90
   2   9   4    0.96    0.82
  -2   9  -4    1.61    1.05
   2   9   4    0.54    0.87
  -2   9  -4   -3.92    3.32
   2   9   4   -0.13    0.77
  -2   9  -4   -0.48    0.84
   2   9   4    0.14    3.18
  -2   9  -4    0.63    0.81
   2  -9   5   -0.75    0.94
   2  -9   5   -1.03    0.81
  -2   9   5   -0.34    0.55
  -2   9   5   -0.20    0.98
  -2   9   5   -0.91    0.72
  -2   9   5   -0.02    1.04
  -2  -9   5    1.00    1.01
  -2   9  -5   -1.28    0.61
   2   9   5    0.22    1.27
  -2   9  -5   -0.45    1.10
   2   9   5    0.70    0.79
   2   9   5   -0.22    0.71
   2   9  -6    1.63    0.76
   2  -9   6   -0.26    0.56
  -2   9   6    0.00    0.62
  -2   9   6    0.34    0.60
   2  -9   6    0.02    0.66
  -2   9   6    0.23    0.64
  -2   9  -6    0.54    0.67
   2   9   6   -0.32    0.63
   2   9   6    0.28    0.57
  -2  -9   6    1.28    0.57
   2   9   6    0.30    0.64
  -2  -9  -7    0.16    0.35
  -2   9   7    0.07    0.42
   2   9  -7    0.10    0.61
  -2   9   7    0.14    0.58
   2  -9   7   -0.09    0.41
   2  -9   7   -0.40    0.58
  -2   9   7   -0.76    0.42
  -2   9  -7    1.31    0.45
   2   9   7    0.49    0.44
  -2  -9   7   -0.51    0.41
  -3   9   0    0.34    0.78
  -3   9   0   -1.68    0.84
   3   9   0   -0.24    0.60
  -3  -9   0   -2.88    4.64
   3  -9   0    1.50    4.52
  -3   9   0    0.45    0.77
  -3   9   0   -0.91    0.87
  -3   9   0   -0.14    0.78
   3   9   0    1.68    0.91
   3   9   0    0.79    0.84
  -3  -9   0   -0.32    0.73
  -3   9   1    0.21    0.86
   3   9  -1   -5.89    3.21
   3   9  -1    1.63    0.98
  -3  -9  -1    0.51    1.07
  -3   9   1   -2.33    1.81
   3  -9   1   -3.28    3.23
  -3   9   1    0.55    0.79
  -3   9   1    1.50    0.76
  -3   9   1    0.92    0.80
  -3  -9  -1   -0.69    2.91
   3   9  -1    0.93    0.63
  -3   9   1    0.50    0.81
  -3   9  -1    0.96    0.92
  -3  -9   1    1.31    0.94
  -3   9  -1    0.63    0.87
   3   9   1    1.06    0.69
  -3   9  -1   -0.37    0.89
   3   9   1   -1.03    0.87
   3   9   1    0.96    0.79
  -3   9  -1    0.38    0.82
  -3   9  -1    1.84    2.19
   3  -9  -1    4.55    3.41
  -3  -9   1    1.48    3.08
   3   9   1    0.47    2.47
  -3   9  -1    0.66    0.78
  -3   9   2    1.56    0.95
  -3   9   2    0.65    0.81
  -3  -9  -2   -0.34    1.05
  -3   9   2    0.34    0.78
  -3   9   2   -0.58    0.74
   3   9  -2   -0.36    0.95
  -3   9   2    0.09    2.12
   3  -9   2    1.02    3.45
   3   9  -2    5.34    3.69
  -3  -9  -2   -5.43    3.13
   3   9  -2    1.13    0.79
  -3   9  -2    1.05    0.91
  -3  -9   2    0.55    1.09
   3   9   2   -2.52    2.34
   3   9   2    1.26    0.92
  -3   9  -2    1.01    0.85
  -3   9  -2    1.81    0.82
  -3  -9   2   -0.12    0.74
  -3   9  -2    1.95    2.30
  -3   9  -2   -0.72    0.95
  -3  -9   2   -0.48    3.68
   3  -9  -2    6.07    3.31
   3   9   2    0.90    0.70
  -3   9   3    3.27    0.82
   3   9  -3   -4.74    4.25
   3   9  -3    2.68    0.93
   3   9  -3    2.56    1.08
  -3   9   3    1.54    0.97
  -3   9   3    2.77    0.74
  -3  -9  -3    1.45    1.01
  -3   9   3    1.84    0.79
  -3  -9  -3    0.65    4.40
   3  -9   3    2.32    4.02
  -3   9  -3    2.29    1.04
  -3   9  -3    1.56    0.98
   3  -9  -3    5.93    4.62
   3   9   3    0.79    0.77
  -3  -9   3    2.81    1.19
  -3   9  -3   -1.78    3.15
  -3   9  -3    1.31    0.91
  -3  -9   3    1.68    0.80
   3   9   3    2.92    1.01
   3   9   3    1.30    2.84
   3   9   3    2.36    0.96
   3   9  -4    0.97    1.04
  -3   9   4    1.53    0.68
  -3   9   4    1.36    0.89
  -3  -9  -4    2.91    1.32
  -3   9   4    1.56    0.76
  -3   9  -4    2.88    1.11
  -3   9  -4   -0.27    0.90
  -3   9  -4    0.52    1.00
   3   9   4    0.86    1.14
  -3  -9   4    2.06    0.90
  -3   9  -4    0.30    6.19
   3   9   4    2.25    0.83
   3   9   4    3.05    0.84
  -3   9   5    0.44    0.79
  -3   9   5    0.37    0.53
  -3   9   5   -1.30    0.66
  -3   9   5    0.02    0.69
   3  -9   5    1.66    0.84
   3   9  -5    0.65    0.86
   3   9   5    0.11    0.85
   3   9   5   -0.40    0.73
   3   9   5    1.59    0.84
  -3  -9   5    1.61    0.79
  -3   9  -5    1.10    0.87
  -3   9   6    2.24    0.71
  -3  -9  -6    1.43    0.49
   3  -9   6    1.35    0.51
  -3   9   6    1.30    0.61
   3   9  -6    2.57    0.66
  -3   9   6    1.69    0.61
   3  -9   6    1.24    0.66
   3   9   6    0.17    0.53
  -3  -9   6    1.42    0.56
  -3   9  -6    2.14    0.67
  -3  -9  -7   -0.54    0.32
   3   9  -7    0.02    0.36
  -3   9   7    0.69    0.35
  -3   9  -7    0.31    0.31
  -3  -9   7   -0.11    0.33
   3   9   7    0.67    0.28
   4   9   0    0.63    0.68
  -4   9   0    0.55    0.82
   4   9   0   -0.79    2.61
   4   9   0    1.04    0.84
  -4   9   0    0.93    2.25
   4  -9   0    1.66    4.92
  -4   9   0    0.80    0.78
  -4   9   0   -1.30    0.84
  -4  -9   0   -0.83    3.68
  -4  -9   0    3.38    1.19
  -4  -9   0   -1.41    0.98
  -4   9   0   -0.37    0.84
   4   9  -1   -5.02    2.91
  -4   9   1    0.38    0.76
  -4  -9  -1   10.85    5.72
  -4   9   1    0.73    0.80
  -4  -9  -1    0.27    0.97
   4   9  -1    0.43    0.93
   4   9  -1    1.41    0.74
  -4   9   1    5.49    1.88
  -4   9   1   -0.07    0.86
  -4   9   1    0.49    0.73
  -4   9  -1    0.33    0.87
  -4   9  -1    0.88    1.01
  -4   9  -1    2.13    2.50
   4   9   1    4.23    2.86
  -4  -9   1    0.74    1.09
   4   9   1    1.61    0.75
   4   9   1    1.92    0.93
  -4   9  -1    1.71    0.89
   4  -9  -1   -9.43    6.76
  -4  -9   1    0.96    0.74
  -4  -9   1    2.20    5.05
  -4   9  -1    2.59    1.01
  -4   9   2    9.99    1.35
   4  -9   2   -3.94    7.94
  -4   9   2   11.16    1.27
  -4   9   2   11.95    1.32
   4   9  -2   11.37    1.77
  -4  -9  -2    5.20    3.99
   4   9  -2    2.28    3.48
   4   9  -2   12.41    1.36
  -4   9   2    9.62    1.38
  -4  -9  -2    8.52    1.29
   4   9   2   12.17    1.60
  -4  -9   2   11.98    1.30
  -4   9  -2   11.06    1.55
   4  -9  -2    2.51    3.87
  -4   9  -2   12.49    1.71
  -4   9  -2    4.29    2.89
   4   9   2   15.54    1.49
  -4   9  -2   10.40    1.28
  -4  -9   2    2.82    4.71
  -4   9  -2   11.16    1.60
  -4  -9   2   11.49    1.85
   4   9  -3   19.68    1.97
  -4   9   3   19.70    1.77
  -4   9   3   17.85    1.38
  -4  -9  -3   16.93    1.79
   4   9  -3   16.07    1.61
  -4   9   3   17.87    1.53
  -4   9   3   17.82    1.45
  -4   9  -3   18.16    4.03
  -4   9  -3   16.29    1.73
   4   9   3   23.89    4.23
  -4  -9   3   18.41    2.08
  -4   9  -3   17.63    1.66
   4   9   3   16.92    1.66
  -4  -9   3   19.43    1.55
   4   9   3   17.63    1.73
  -4   9  -3   15.61    1.79
  -4  -9  -4    1.91    0.99
   4   9  -4    0.21    0.92
   4   9  -4    0.42    0.82
  -4   9   4    1.13    0.58
   4  -9   4    1.13    0.94
  -4   9   4    0.32    0.78
  -4   9   4    0.63    0.85
  -4   9  -4    1.09    0.76
  -4   9  -4    0.50    0.85
   4   9   4    0.91    0.74
  -4   9  -4   -0.86    1.07
  -4  -9   4    0.62    0.71
   4   9  -5   -0.29    0.74
  -4   9   5    1.34    0.64
   4  -9   5    0.72    0.70
   4   9  -5    1.52    0.72
  -4  -9  -5    0.49    0.51
  -4   9   5    0.77    0.66
  -4  -9   5    2.41    0.74
  -4   9  -5    0.60    0.84
  -4   9  -5    1.33    0.66
   4   9   5    2.47    0.70
  -4   9   6    3.14    0.54
  -4  -9  -6    2.90    0.45
  -4   9   6    2.97    0.52
   4  -9   6    4.08    0.56
   4  -9   6    4.11    0.63
   4   9  -6    3.55    0.58
  -4   9  -6    3.60    0.57
   4   9   6    5.01    0.72
  -4  -9   6    3.19    0.52
  -5   9   0    0.91    0.87
   5   9   0   -5.87    3.02
  -5   9   0    0.61    0.79
  -5  -9   0    0.83    4.22
   5  -9   0   -0.48    5.16
  -5   9   0   -0.53    0.82
  -5   9   0   -4.95    3.27
  -5   9   0    0.07    0.93
   5   9   0   -0.72    0.86
   5   9   0    2.40    0.91
  -5  -9   0    0.32    1.04
  -5   9   1    1.39    0.74
  -5   9   1    2.36    0.86
   5   9  -1    1.61    0.96
  -5   9   1    2.24    0.82
  -5   9   1    2.39    3.66
   5   9  -1    3.30    0.81
  -5   9   1    1.64    0.89
  -5  -9  -1    1.34    4.01
  -5  -9  -1    1.63    0.99
   5   9  -1    1.27    3.20
  -5   9  -1    2.37    3.21
   5  -9  -1   -0.68    4.93
  -5   9  -1    1.43    0.92
   5   9   1    1.47    0.81
  -5  -9   1    1.79    1.05
  -5  -9   1    2.74    0.68
   5   9   1    1.87    3.14
  -5   9  -1    1.73    0.98
  -5  -9   1    1.23    4.56
  -5   9  -1    1.11    0.85
  -5   9  -1    3.17    1.05
  -5  -9  -2    6.89    1.20
   5   9  -2    5.08    1.12
  -5   9   2    4.63    1.09
  -5   9   2    7.12    0.92
   5   9  -2    7.79    1.16
  -5   9   2    5.46    0.86
   5   9   2    8.85    1.13
  -5   9  -2    7.10    1.04
  -5   9  -2    8.61    1.05
  -5  -9   2    7.25    1.13
  -5   9  -2    5.06    0.95
  -5  -9   2    5.65    1.19
  -5   9  -2    5.21    1.17
   5   9  -3    1.03    0.91
  -5   9   3   -0.14    0.60
  -5  -9  -3    0.08    0.74
   5   9  -3    0.39    0.69
  -5   9   3    0.76    0.58
  -5  -9  -3   -0.41    0.56
  -5   9   3    1.34    0.73
   5   9   3    1.56    0.80
  -5   9  -3    0.49    0.73
  -5  -9   3    0.49    0.64
  -5   9  -3   -1.08    0.83
  -5   9  -3    0.24    0.78
   5   9  -4    1.60    0.80
   5  -9   4    2.07    0.87
  -5  -9  -4    2.13    0.99
  -5   9   4    1.20    0.52
  -5   9   4    0.97    0.67
   5   9  -4    3.03    0.68
  -5  -9  -4    1.85    0.57
  -5   9  -4    2.88    0.71
   5   9   4    1.83    0.69
  -5  -9   4    1.53    0.61
  -5   9  -4    2.33    0.67
  -5   9  -4    0.49    0.65
   5   9  -5    2.50    0.61
   5   9  -5    2.78    0.86
   5  -9   5    2.95    0.71
  -5  -9  -5    3.39    0.49
  -5   9  -5    2.28    0.53
  -5   9  -5    3.44    0.60
   5   9   5    4.04    0.60
  -5  -9   5    3.60    0.60
  -5  -9  -6   -0.14    0.29
   5   9   6   -0.79    0.36
  -5   9  -6    0.04    0.32
  -5  -9   6   -0.37    0.30
   6   9   0   34.92    2.27
  -6  -9   0   34.85    2.30
  -6   9   0   36.78    2.22
  -6   9   0   35.66    2.31
  -6   9   0   32.51    2.08
  -6   9   0   33.27    2.12
  -6   9   1   -0.32    0.74
  -6  -9  -1   -0.12    0.84
  -6   9   1    1.51    0.77
   6   9  -1   -0.05    0.80
  -6   9   1   -0.43    0.69
   6   9   1   -0.40    0.77
  -6   9  -1   -0.63    0.74
  -6   9  -1    0.84    0.88
  -6  -9   1    0.28    0.62
  -6   9  -1    1.06    0.76
  -6   9  -1   -0.93    0.81
  -6  -9   1   -0.10    0.82
   6   9  -2   -0.27    0.79
  -6   9   2    0.31    0.63
  -6   9   2   -0.79    0.70
  -6  -9  -2    1.80    0.73
  -6   9   2   -0.78    0.57
  -6   9  -2    0.83    0.78
  -6  -9   2   -0.09    0.64
  -6   9  -2    1.21    0.70
  -6   9  -2    0.83    0.78
   6   9   2   -0.39    0.72
  -6   9  -2    0.26    0.87
  -6  -9   2   -0.22    0.57
  -6  -9  -3   -0.16    0.46
   6   9  -3    1.22    0.74
  -6   9   3    1.53    0.50
  -6  -9  -3   -0.69    0.57
  -6  -9   3    0.26    0.94
  -6   9  -3    1.23    0.66
   6   9   3    0.02    0.62
  -6  -9   3    0.54    0.56
  -6   9  -3    0.29    0.65
  -6   9  -3    0.41    0.67
  -6  -9  -4    0.09    0.40
  -6  -9  -4    0.86    0.58
   6   9  -4    0.76    0.62
  -6  -9   4    0.28    0.48
  -6   9  -4    0.05    0.62
  -6   9  -4    0.68    0.52
   6   9   4   -0.13    0.43
  -6   9  -4   -0.34    0.47
   6  -9   5   -0.24    0.32
   6   9  -5   -0.36    0.46
  -6  -9  -5    0.60    0.40
  -6   9  -5    0.20    0.36
  -6  -9   5    0.48    0.39
   6   9   5    0.29    0.37
  -7   9   0   -0.03    0.56
  -7   9   0   -0.45    0.76
   7   9   0   -0.38    0.70
  -7  -9   0    0.01    0.57
  -7   9   0   -0.35    0.64
  -7  -9  -1    3.66    0.70
   7   9  -1    3.46    0.74
  -7   9   1    1.65    0.57
  -7   9   1    3.00    0.69
  -7   9   1    3.17    0.64
   7   9   1    2.75    0.67
  -7   9  -1    2.72    0.63
  -7   9  -1    2.88    0.68
  -7   9  -1    4.00    0.76
  -7  -9   1    4.11    0.69
  -7  -9   1    3.21    1.07
  -7   9   2    1.30    0.80
  -7   9   2    2.20    0.56
  -7  -9  -2    1.06    0.53
   7   9  -2    1.26    0.66
   7   9   2    1.12    0.53
  -7  -9   2    1.12    0.50
  -7  -9   2    0.37    0.48
  -7   9  -2    0.65    0.50
  -7   9  -2    1.11    0.62
  -7   9  -2    0.69    0.54
   7   9  -3    1.09    0.53
  -7  -9  -3    0.88    0.47
  -7  -9   3    0.34    0.66
  -7   9  -3    1.33    0.45
  -7   9  -3    0.59    0.50
   7   9   3   -0.29    0.63
   7   9  -4    0.17    0.43
  -7   9  -4    0.22    0.34
  -7  -9   4    0.32    0.36
  -8   9   0    0.66    0.39
  -8   9   0   -0.02    0.37
   8   9   0   -0.37    0.43
  -8   9   0    1.46    0.49
  -8  -9   0    0.03    0.37
   8   9  -1   -0.44    0.39
  -8  -9  -1   -0.72    0.39
  -8   9   1    0.00    0.43
  -8  -9   1    0.54    0.36
   8   9   1    0.26    0.40
  -8   9  -1   -0.30    0.40
  -8   9  -1    0.41    0.37
  -8  -9  -2   -0.50    0.32
   8   9  -2    0.25    0.38
  -8   9  -2    0.50    0.31
  -8   9  -2    0.01    0.35
   0 -10   0   13.62    1.53
   0 -10   0   15.96    3.68
   0  10   0   12.54    1.38
   0  10   0   12.63    1.42
   0  10   0   12.51    1.50
   0  10   0   13.39    1.58
   0  10  -1    1.02    0.86
   0  10   1    0.08    0.78
   0 -10   1   -1.84    3.27
   0  10  -1    0.79    0.90
   0  10  -1    0.29    2.28
   0  10   1   -0.51    0.75
   0 -10   1    0.17    0.79
   0  10  -1    0.65    0.79
   0 -10  -1   -3.00    2.95
   0  10  -1   -0.18    0.82
   0  10   1    1.14    0.78
   0  10   1   -2.73    1.92
   0  10   1   -0.44    0.80
   0  10   2   81.54    3.97
   0  10  -2   77.47    3.95
   0  10  -2   81.25    4.05
   0  10  -2   62.37    6.42
   0 -10  -2   77.20    7.83
   0 -10   2   78.02    4.00
   0  10   2   77.41    4.06
   0  10  -2   80.79    4.09
   0  10   2   75.72    7.37
   0  10   2   72.04    5.87
   0 -10   2   77.40    7.77
   0  10  -2   76.22    4.21
   0  10   2   78.67    3.99
   0  10   2   81.65    3.96
   0  10   3    0.04    0.81
   0  10   3    5.20    3.81
   0 -10  -3   -1.53    4.77
   0 -10   3    0.11    0.90
   0  10  -3    1.68    3.74
   0 -10   3    5.28    5.04
   0  10   3   -0.48    0.75
   0  10   3   -0.10    0.77
   0  10  -3    0.69    1.03
   0  10   3    0.99    0.84
   0 -10   4   76.31    3.80
   0  10   4   71.14    3.77
   0  10   4   71.85    3.77
   0  10   4   73.46    3.64
   0  10  -4   63.46    3.77
   0  10  -4   71.15    3.82
   0  10   4   71.74    3.69
   0  10  -5    0.83    0.75
   0  10   5    1.05    0.77
   0  10   5    0.00    0.73
   0  10   5   -0.59    0.74
   0 -10   5    0.06    0.73
   0  10  -5   -0.90    0.81
   0  10   6   56.54    2.76
   0 -10   6   56.21    2.72
   0  10  -6   49.68    2.74
   0  10   6   53.47    2.75
   0  10  -6   55.65    2.74
   0  10   6   54.31    2.77
   0  10   7    0.18    0.34
   0  10   7    0.54    0.31
  -1  10   0    1.86    2.00
   1  10   0   -0.19    0.80
  -1  10   0    0.66    0.80
  -1 -10   0   -1.10    3.28
   1  10   0    1.41    0.93
   1  10   0   -0.12    0.78
  -1  10   0   -1.00    0.76
   1  10   0   -0.90    0.91
  -1 -10   0    0.92    0.87
  -1  10   0   -0.21    0.85
   1 -10   0    0.15    3.43
  -1  10   0   -0.49    0.83
   1  10  -1   31.34    5.05
  -1  10   1   38.97    2.27
   1 -10   1   41.70    7.10
   1  10  -1   42.65    2.61
  -1 -10  -1   29.86    5.89
  -1  10   1   38.90    2.39
  -1  10   1   35.37    4.30
   1  10  -1   35.94    2.21
  -1  10   1   37.51    2.34
  -1  10   1   37.05    2.31
   1  10  -1   36.89    2.24
   1  10   1   34.32    2.20
  -1  10  -1   37.00    2.41
   1  10   1   35.89    2.39
  -1  10  -1   35.42    2.28
   1 -10  -1   35.67    6.40
   1  10   1   36.23    4.68
  -1 -10   1   34.85    2.26
   1  10   1   35.97    2.22
  -1  10  -1   36.65    2.45
  -1  10  -1   41.52    2.28
  -1  10  -1   34.51    4.64
   1  10   1   38.19    2.29
  -1 -10   1   40.13    6.49
   1  10   1   44.42    5.45
   1  10  -2    5.42    0.96
   1  10  -2    7.73    3.70
  -1 -10  -2    6.28    3.84
  -1  10   2    3.26    0.90
  -1  10   2    6.86    1.02
   1 -10   2    4.07    3.72
  -1  10   2    5.41    0.89
  -1  10   2    4.51    0.92
   1  10  -2    5.51    0.95
  -1  10   2   10.26    2.35
  -1 -10   2   -2.12    4.01
   1  10   2    5.39    1.04
  -1  10  -2    5.95    1.03
  -1  10  -2    4.90    1.04
   1  10   2    5.17    0.92
   1  10   2   -0.20    3.39
  -1  10  -2    4.22    3.02
   1 -10  -2    5.63    4.07
  -1  10  -2    4.47    0.98
  -1  10  -2    5.27    0.95
   1  10   2    3.54    0.86
   1  10   2    4.99    0.88
  -1 -10   2    3.60    0.93
  -1  10   3  122.69    5.87
  -1  10   3  121.71    5.92
  -1  10   3  122.92    5.83
   1  10  -3  127.74    6.01
  -1  10   3  127.06    5.80
   1  10  -3  114.45    5.78
   1 -10   3  126.47    5.95
   1 -10   3  103.77   11.16
  -1  10  -3  119.58    5.87
  -1  10  -3  122.39    5.87
   1  10   3  121.87    5.81
   1  10   3  120.18    8.71
   1  10   3  115.28    5.84
  -1  10  -3  101.62    8.77
  -1 -10   3  127.44    5.92
   1 -10  -3  118.66   11.32
  -1  10  -3  116.00    5.86
   1  10   3  119.97    5.82
   1  10   3  119.17    5.92
  -1  10   4    1.39    0.85
   1  10  -4    0.90    0.87
  -1  10   4    1.64    0.90
   1  10  -4    2.33    1.01
  -1  10   4    1.48    0.70
  -1 -10  -4    3.51    1.17
   1 -10   4   -0.26    0.84
   1  10   4    2.04    0.81
  -1 -10   4    0.78    0.89
   1  10   4    2.12    0.90
   1  10   4    2.10    0.80
  -1  10  -4    0.79    0.85
  -1  10  -4    1.14    1.12
   1  10   4    1.43    0.74
  -1  10   5   67.42    3.40
  -1  10   5   67.51    3.40
   1 -10   5   66.90    3.36
  -1  10   5   63.73    3.26
   1  10  -5   64.45    3.48
  -1  10   5   64.75    3.36
  -1 -10   5   62.98    3.35
   1  10   5   68.38    3.41
   1  10   5   65.90    3.37
  -1  10  -5   69.20    3.39
   1  10   5   63.65    3.36
  -1  10  -5   60.29    3.37
  -1  10   6   -0.06    0.50
  -1  10   6   -0.64    0.49
   1 -10   6    0.38    0.44
   1  10  -6    1.19    0.59
   1  10   6   -0.20    0.52
   1  10   6   -0.17    0.50
  -1 -10   6    0.19    0.51
  -1  10  -6    0.04    0.59
  -1  10  -6    2.06    0.69
   1  10   6    0.69    0.54
  -1  10   7   20.41    1.10
   1  10  -7   19.75    1.09
  -1  10   7   20.47    1.10
   1  10   7   20.37    1.10
   2  10   0   31.22    3.93
  -2  10   0   36.87    2.28
  -2  10   0   34.37    2.22
  -2  10   0   33.18    2.25
   2  10   0   33.93    2.18
  -2 -10   0   24.97    4.55
   2  10   0   36.06    2.32
  -2  10   0   31.08    4.96
  -2  10   0   35.70    2.23
   2  10   0   31.38    2.14
   2  10   0   35.01    2.29
   2 -10   0   50.13    7.73
  -2  10   1   -0.40    0.81
  -2 -10  -1    3.15    3.83
   2  10  -1    0.38    0.90
   2  10  -1    5.04    3.63
   2 -10   1   -1.44    4.02
  -2  10   1   -0.33    0.78
  -2  10   1    0.53    0.80
  -2  10   1    3.71    2.18
   2  10  -1    0.39    0.76
  -2  10   1    0.40    0.83
   2  10   1    0.37    0.78
  -2  10  -1    1.13    0.89
  -2  10  -1   -0.15    0.87
   2  10   1    0.72    0.88
  -2  10  -1    2.86    3.36
   2 -10  -1   -5.82    3.33
   2  10   1    0.57    0.90
  -2 -10   1   -2.79    3.71
  -2  10  -1    0.68    0.85
  -2 -10   1    0.42    0.73
   2  10   1   -0.57    0.77
  -2  10  -1   -0.49    0.92
   2  10   1   -3.73    2.81
  -2  10   2   65.19    3.39
  -2  10   2   59.72    3.37
  -2  10   2   49.80    5.55
   2 -10   2   72.36    8.49
  -2 -10  -2   52.14    7.74
   2  10  -2   60.61    3.52
  -2  10   2   68.76    3.42
  -2  10   2   64.36    3.51
   2  10  -2   66.08    3.48
   2  10   2   64.71    3.39
  -2  10  -2   66.57    3.51
   2  10   2   64.65    3.52
  -2 -10   2   62.48    3.37
   2  10   2   60.75    6.55
   2 -10  -2   50.42    7.69
  -2  10  -2   66.37    3.43
  -2  10  -2   68.34    3.44
  -2 -10   2   55.04    8.33
  -2  10  -2   62.94    6.29
   2  10   2   70.38    3.41
  -2  10  -2   68.12    3.54
   2  10   2   68.72    3.42
  -2  10   3   10.15    1.32
  -2  10   3   10.12    1.34
  -2  10   3    7.68    1.14
   2 -10   3   17.07    6.87
  -2 -10  -3    7.38    1.25
   2  10  -3    9.26    1.28
  -2  10   3    7.98    1.17
  -2 -10  -3   -4.40    5.69
  -2  10  -3    8.80    1.43
   2  10   3    6.83    1.00
   2  10   3   12.20    3.40
  -2 -10   3   10.92    1.43
  -2 -10   3    7.35    1.29
   2  10   3   10.91    1.53
  -2  10  -3    9.50    1.13
  -2  10  -3   10.50    1.31
   2  10   3    9.35    1.43
  -2  10  -3    6.33    3.84
   2  10   3    9.54    1.37
  -2  10  -3   11.36    1.43
  -2 -10  -4   64.65    4.16
  -2  10   4   73.89    3.89
  -2  10   4   85.98    4.03
   2  10   4   76.57    3.92
  -2  10  -4   76.83    3.83
   2  10   4   72.95    3.90
   2  10   4   80.87    4.48
  -2  10  -4   84.03    4.51
   2  10  -5    0.44    0.77
  -2  10   5    0.08    0.53
   2 -10   5    0.56    0.62
  -2  10   5    0.49    0.63
  -2  10   5    0.68    0.62
  -2  10   5   -0.13    0.63
   2  10   5    1.01    0.71
   2  10   5    0.60    0.68
  -2  10  -5   -0.07    0.69
  -2  10  -5    0.42    0.56
  -2 -10   5    0.40    0.69
   2  10   5    1.22    0.68
  -2  10   6   18.87    1.21
  -2  10   6   16.45    1.24
   2 -10   6   18.74    1.14
   2  10  -6   19.83    1.32
  -2 -10  -6   18.04    1.12
  -2  10   6   19.57    1.25
   2  10   6   19.47    1.27
   2  10   6   17.81    1.22
  -2  10  -6   17.32    1.22
  -2 -10   6   18.73    1.19
   2  10   6   15.97    1.66
   2  10  -7    0.57    0.35
   2  10   7    0.88    0.40
   3  10   0    0.21    0.67
  -3  10   0    0.18    0.88
  -3 -10   0   -0.08    3.96
  -3 -10   0   -0.32    1.06
  -3  10   0   -3.11    2.39
   3  10   0    0.98    0.86
  -3  10   0    0.61    0.89
  -3  10   0   -0.45    0.81
   3  10   0   -3.77    3.21
   3 -10   0   -2.21    4.21
  -3  10   0   -0.75    0.90
   3 -10   1   35.90    5.56
  -3  10   1   40.92    2.52
   3  10  -1   43.49    2.57
  -3 -10  -1   30.64    5.28
  -3  10   1   29.18    4.76
   3  10  -1   43.50    2.40
   3  10  -1   30.02    4.60
  -3  10   1   39.50    2.52
  -3 -10  -1   38.60    2.75
  -3  10   1   40.27    2.40
  -3  10   1   42.50    2.44
  -3  10  -1   40.04    2.42
  -3 -10   1   39.73    2.29
   3  10   1   42.66    2.39
  -3  10  -1   40.24    2.50
  -3  10  -1   30.46    5.08
  -3  10  -1   41.15    2.55
   3  10   1   44.80    2.62
  -3 -10   1   32.86    5.34
  -3  10  -1   42.51    2.64
  -3 -10   1   42.07    2.87
   3 -10  -1   45.72    8.68
   3  10   1   35.35    5.67
  -3 -10  -2   -0.45    1.04
   3  10  -2   -0.02    0.75
  -3 -10  -2   -1.47    4.27
   3  10  -2    0.12    0.95
  -3  10   2   -3.84    2.35
  -3  10   2   -0.02    0.73
   3 -10   2   -1.28    4.75
  -3  10   2    0.36    0.88
  -3  10   2    0.03    0.79
  -3  10   2   -0.04    0.78
   3 -10  -2    4.17    4.46
  -3  10  -2   -3.50    3.12
   3  10   2    0.60    0.79
  -3 -10   2    0.56    1.05
   3  10   2   -0.84    2.87
  -3 -10   2   -1.92    4.91
  -3  10  -2    0.81    0.80
  -3  10  -2   -1.38    0.86
   3  10   2   -0.65    0.82
  -3  10  -2    1.13    0.98
  -3 -10   2   -0.52    0.63
  -3  10  -2   -0.51    0.94
   3  10  -3   79.42    4.08
  -3  10   3   74.42    4.18
  -3 -10  -3   68.95    4.16
   3  10  -3   83.60    4.21
  -3  10   3   75.92    3.96
  -3  10   3   79.03    3.93
   3  10   3   82.33    4.07
  -3  10  -3   80.83    4.15
  -3 -10   3   78.83    3.96
   3  10   3   82.17    4.34
  -3  10  -3   78.10    4.11
  -3  10   4   -0.45    0.56
  -3  10   4    0.89    0.70
  -3 -10  -4   -0.77    0.87
   3  10  -4    0.24    0.79
  -3  10   4   -0.65    0.77
  -3  10  -4   -0.43    0.87
  -3 -10   4   -0.61    0.64
  -3  10  -4    1.59    0.81
   3  10   4   -1.53    0.76
  -3  10  -4    1.42    0.83
   3  10   4   -0.29    0.96
   3  10   4    0.90    0.78
   3 -10   5   44.35    2.31
  -3  10   5   43.41    2.43
  -3  10   5   39.61    2.22
  -3  10   5   46.62    2.45
   3  10  -5   41.89    2.46
  -3  10  -5   40.58    2.48
   3  10   5   47.37    2.47
   3  10   5   44.25    2.37
  -3 -10   5   45.42    2.35
   3  10   5   45.15    2.51
   3 -10   6    4.23    0.56
  -3  10   6    5.38    0.72
  -3  10   6    4.18    0.56
  -3  10  -6    4.48    0.84
  -3 -10   6    4.31    0.59
  -4 -10   0   12.35    1.80
  -4 -10   0   11.08    4.65
  -4  10   0   15.57    1.58
  -4  10   0   16.82    1.73
   4 -10   0   13.61    5.68
   4  10   0   19.74    4.02
  -4  10   0   18.28    1.74
   4  10   0   15.81    1.45
   4  10   0   16.65    1.80
   4  10  -1    1.68    0.95
   4 -10   1   -6.95    6.20
  -4 -10  -1   -0.29    0.96
  -4  10   1    2.23    0.90
   4  10  -1    0.40    0.72
  -4  10   1    0.39    0.83
  -4  10   1    1.69    3.87
  -4 -10  -1    5.15    4.82
  -4  10   1    1.04    0.84
  -4  10  -1   -2.74    3.16
   4 -10  -1   -8.72    5.93
  -4 -10   1    0.33    1.04
  -4  10  -1    0.80    0.89
   4  10   1   -0.03    0.75
   4  10   1    0.40    0.91
  -4  10  -1    0.46    0.96
  -4  10  -1   -0.12    0.81
  -4 -10   1   -0.76    0.65
  -4  10   2   45.02    2.47
  -4  10   2   40.08    2.28
  -4 -10  -2   35.79    2.50
  -4  10   2   36.65    2.35
   4  10  -2   31.16    2.93
  -4  10  -2   39.70    2.44
   4  10   2   40.48    2.30
  -4  10  -2   38.16    2.44
   4  10   2   37.92    2.38
  -4  10  -2   35.41    2.37
  -4  10   3    1.62    0.83
  -4  10   3    1.66    0.76
  -4  10   3    2.87    0.76
  -4  10   3    4.34    0.93
   4  10  -3    2.71    0.74
  -4 -10  -3    1.76    0.87
   4  10  -3    3.86    1.03
  -4  10  -3    1.89    0.79
   4  10   3    4.77    1.33
   4  10   3    1.76    0.85
  -4  10  -3    1.16    0.74
  -4  10  -3    1.95    0.91
  -4 -10   3    3.31    0.72
  -4 -10   3    4.14    1.17
   4  10  -4   58.25    3.05
   4  10  -4   56.53    2.96
  -4  10   4   55.92    2.94
  -4  10   4   57.48    3.02
  -4  10   4   55.29    2.81
  -4 -10  -4   56.51    3.01
  -4  10  -4   57.09    3.01
  -4  10  -4   55.05    2.90
  -4  10  -4   58.51    3.01
   4  10   4   55.42    2.97
  -4 -10   4   60.84    2.95
   4 -10   5    0.80    0.50
  -4  10   5    1.39    0.59
   4  10  -5    1.35    0.52
  -4 -10  -5    1.56    0.45
  -4  10   5    1.52    0.53
  -4  10  -5    1.43    0.58
   4  10   5    0.83    0.50
  -4 -10   5    0.17    0.51
   4  10  -6   21.66    1.26
  -4 -10  -6   21.45    1.19
  -4  10  -6   24.66    1.25
  -4 -10   6   25.67    1.26
   4  10   6   24.33    1.25
   5  10   0    0.09    0.80
  -5  10   0    1.74    0.80
  -5 -10   0   -1.64    0.81
  -5  10   0   -0.08    0.83
   5  10   0    0.05    0.85
  -5  10   0    0.66    0.77
  -5  10   0    0.08    0.73
  -5 -10  -1   16.20    1.85
   5  10  -1   22.53    1.75
   5  10  -1   22.25    1.57
  -5  10   1   19.79    1.61
  -5  10   1   19.23    1.56
  -5  10   1   17.80    1.69
  -5 -10   1   19.64    1.41
   5  10   1   17.92    1.75
  -5  10  -1   18.71    1.85
  -5  10  -1   19.89    1.71
  -5 -10   1   20.03    1.90
  -5  10  -1   18.58    1.79
  -5  10   2    8.64    1.15
  -5 -10  -2   10.18    1.37
  -5  10   2    7.91    1.08
  -5 -10  -2    7.83    1.01
   5  10  -2   12.10    1.51
   5  10  -2    6.98    1.14
  -5  10   2    6.13    0.97
  -5 -10   2    7.00    1.04
  -5  10  -2    5.26    0.90
  -5 -10   2    8.54    1.11
  -5  10  -2    8.76    1.05
   5  10   2    7.54    0.98
  -5  10  -2    8.37    1.06
  -5 -10  -3   36.48    1.93
  -5  10   3   34.95    1.93
  -5  10   3   31.33    1.90
   5  10  -3   34.59    2.11
  -5 -10  -3   39.31    2.12
  -5  10   3   35.66    2.06
   5  10  -3   41.50    2.30
   5  10   3   33.87    2.08
  -5 -10   3   34.14    1.97
  -5  10  -3   34.05    2.11
  -5  10  -3   39.38    2.22
  -5  10  -3   36.74    2.14
  -5 -10   3   32.27    2.04
  -5 -10  -4    0.18    0.43
  -5  10   4    0.77    1.05
   5  10  -4   -0.33    0.70
   5  10  -4    0.59    0.64
  -5 -10  -4    0.56    0.64
   5  10   4    0.16    0.50
  -5  10  -4    0.23    0.59
  -5  10  -4    0.17    0.55
  -5 -10   4   -0.10    0.50
  -5  10  -4    0.92    0.64
   5 -10   5   34.50    1.71
  -5 -10  -5   34.15    1.71
   5  10  -5   31.41    1.82
   5  10   5   35.01    1.76
  -5  10  -5   36.54    1.76
  -5 -10   5   35.44    1.78
  -6  10   0   37.31    2.42
  -6 -10   0   43.20    2.39
  -6  10   0   40.92    2.37
  -6  10   0   43.45    2.30
   6  10   0   44.14    2.40
  -6 -10  -1    3.77    0.75
  -6  10   1    2.46    0.70
  -6  10   1    2.40    0.68
   6  10  -1    3.35    0.80
  -6  10   1    1.20    0.68
  -6 -10   1    2.78    0.70
  -6 -10   1    3.87    0.94
  -6  10  -1    2.23    0.69
  -6  10  -1    2.93    0.78
  -6  10  -1    1.82    0.74
   6  10   1    1.94    0.70
  -6  10   2   19.38    1.32
   6  10  -2   22.19    1.61
  -6  10   2   19.39    1.35
  -6 -10  -2   23.04    1.41
  -6  10   2   20.33    1.97
  -6 -10   2   19.28    1.41
  -6  10  -2   17.45    1.50
  -6 -10   2   20.25    1.34
  -6  10  -2   19.39    1.42
   6  10   2   22.15    1.45
  -6  10  -2   21.65    1.37
   6  10  -3    6.29    0.98
  -6 -10  -3    7.56    0.86
  -6 -10  -3    5.28    0.77
  -6  10   3    6.38    0.74
   6  10   3    5.22    0.80
  -6  10  -3    5.17    0.67
  -6  10  -3    7.84    1.08
  -6 -10   3    4.80    0.77
  -6  10  -3    5.53    0.82
   6  10  -4   33.79    1.81
  -6 -10  -4   33.93    1.77
  -6 -10   4   37.62    1.77
  -6  10  -4   35.05    1.74
  -6  10  -4   29.62    1.86
   6  10   4   37.67    1.82
  -7  10   0    0.59    0.51
   7  10   0    1.01    0.54
  -7  10   0    0.49    0.45
  -7 -10   0    0.39    0.48
  -7 -10  -1   22.02    1.32
   7  10  -1   22.57    1.38
  -7  10   1   20.15    1.28
  -7  10   1   22.94    1.50
  -7  10  -1   23.20    1.37
   7  10   1   21.67    1.35
  -7  10  -1   20.12    1.36
  -7 -10   1   24.82    1.38
   7  10  -2    1.88    0.49
  -7 -10  -2    2.36    0.45
  -7 -10   2    0.49    0.81
   7  10   2    1.82    0.45
  -7  10  -2    1.81    0.45
  -7  10  -2    1.65    0.43
   7  10  -3   18.11    1.08
   7  10   3   16.11    1.00
  -7  10  -3   15.89    0.94
   0 -11   0    4.44    4.08
   0  11   0   -0.75    0.73
   0  11   0    0.41    0.83
   0  11   0   -0.05    0.91
   0  11   0   -0.89    2.68
   0 -11  -1    2.51    4.33
   0  11   1    1.90    2.83
   0 -11   1   -5.24    4.47
   0  11   1   -0.54    0.82
   0  11  -1    0.09    0.90
   0  11  -1    0.58    0.80
   0  11  -1    4.65    3.26
   0 -11   1    0.80    0.79
   0  11   1    0.40    0.81
   0  11   1    0.81    0.75
   0  11  -1    0.15    0.81
   0  11   2   -1.06    0.72
   0 -11   2    1.07    0.84
   0  11   2    0.54    0.75
   0 -11   2    0.84    5.29
   0  11   2   -1.04    0.74
   0  11  -2    0.27    0.97
   0  11   2    0.15    0.85
   0 -11  -2    2.18    5.49
   0  11  -2   -0.09    0.79
   0  11  -3    2.12    0.87
   0  11   3    2.40    0.87
   0  11   3    2.39    1.28
   0  11   3    1.60    0.72
   0  11  -4    0.17    0.78
   0  11   4   -0.49    0.72
   0  11  -4   -0.24    0.69
   0  11   4   -0.74    0.65
   0 -11   4    0.19    0.76
   0  11   4   -0.33    0.66
   0  11   4   -0.23    0.60
   0  11   5    6.28    1.00
   0  11   5    9.31    0.99
   0  11  -5    7.93    1.06
   0 -11   5    8.59    0.97
   0  11   5    8.04    1.00
   0  11  -5    8.40    1.33
   0  11   6   -0.14    0.46
   0  11   6   -0.06    0.40
   0 -11   6    0.21    0.36
   0  11  -6    0.15    0.37
   0  11   6   -0.33    0.36
   1  11   0   -0.68    0.71
   1 -11   0    6.05    4.80
   1  11   0    0.04    0.79
  -1 -11   0   -2.34    5.02
   1 -11   0   -1.05    0.79
  -1  11   0    0.54    0.93
  -1  11   0    0.16    0.79
   1  11   0    0.21    0.76
  -1  11   0    0.26    0.88
  -1  11   0    0.34    0.80
   1  11   0   -4.61    3.43
  -1  11   0   -4.10    2.59
  -1  11   1    1.44    0.86
   1  11  -1   -0.44    0.82
   1  11  -1    2.31    0.80
   1  11  -1    1.44    0.87
  -1  11   1    1.35    0.84
   1 -11   1    1.48    0.84
  -1 -11  -1   -0.71    4.81
  -1  11   1    1.42    0.93
  -1  11   1    1.47    0.94
   1 -11   1    4.63    4.92
  -1  11  -1    1.04    1.01
  -1 -11   1   -4.79    4.60
  -1  11  -1    0.69    0.94
  -1  11  -1    1.87    0.84
   1  11   1    3.23    0.83
   1  11   1    2.26    0.81
  -1 -11   1    2.44    0.79
   1 -11  -1   -5.19    4.40
  -1  11  -1   -3.42    2.76
   1  11   1    0.48    0.95
   1  11   1    2.14    0.74
  -1  11  -1    1.73    0.86
  -1  11   2    3.53    0.88
  -1 -11  -2    5.78    8.81
   1  11  -2    5.51    1.04
  -1  11   2    4.47    0.87
  -1  11   2    5.55    0.92
   1  11  -2    5.35    0.98
   1 -11   2    5.14    1.02
  -1  11  -2    5.96    0.95
  -1 -11   2    5.53    0.91
   1  11   2    9.45    1.37
   1  11   2    4.61    0.85
  -1  11  -2    6.40    1.02
   1  11   2    5.34    0.94
  -1  11  -2    6.28    1.06
  -1  11  -2    5.93    0.99
   1  11   2    4.24    0.92
   1 -11   3    5.82    1.50
   1  11  -3    8.23    0.99
  -1 -11  -3    5.35    1.10
  -1  11  -3    2.99    0.82
  -1  11  -3    4.13    0.89
   1  11   3    5.48    0.90
  -1 -11   3    5.47    1.23
   1  11   3    5.27    0.92
   1 -11   4    1.40    0.79
   1  11  -4    0.21    0.74
  -1  11   4    2.11    0.63
  -1  11   4    2.45    0.70
  -1  11   4    0.34    0.68
  -1  11   4    1.68    0.68
  -1  11  -4    1.12    0.78
   1  11   4    1.22    0.72
   1  11   4    1.06    0.74
  -1  11  -4    0.95    0.78
   1  11   4    1.09    0.74
  -1 -11   4    1.25    0.75
  -1  11   5    6.31    0.96
   1  11  -5    7.93    1.02
  -1  11   5    6.75    0.93
  -1  11   5    6.71    1.00
   1 -11   5    6.18    0.95
   1  11   5    6.21    0.87
   1  11   5    6.92    1.00
  -1 -11   5    7.52    0.91
  -1  11  -5    6.22    0.84
  -1  11  -5    4.86    0.77
   1  11   5    7.33    0.94
  -1  11   6    7.06    0.68
   1  11  -6    6.82    0.69
  -1 -11  -6    6.30    0.65
   1 -11   6    7.07    0.64
  -1  11   6    6.12    0.68
   1  11   6    6.03    0.68
  -1 -11   6    8.15    0.64
   1  11   6    7.84    0.71
   1  11   6    5.91    0.78
   2  11   0    7.64    1.05
  -2  11   0    8.81    1.49
  -2 -11   0    8.92    4.95
  -2  11   0   10.05    1.17
   2  11   0    9.49    1.55
   2  11   0   10.40    1.45
   2 -11   0   -2.08    5.02
  -2  11   0    5.62    3.06
  -2  11   0    9.67    1.11
  -2  11   0    8.71    1.13
  -2  11   1    1.58    0.82
   2 -11   1   -7.17    5.28
  -2  11   1    2.85    0.94
  -2  11   1    1.60    0.84
   2  11  -1    0.94    0.91
  -2 -11  -1    2.99    5.16
  -2  11   1    3.99    2.62
  -2  11   1    1.60    0.83
   2  11  -1    2.32    0.92
   2  11   1    2.31    0.85
  -2  11  -1    2.87    1.00
   2  11   1    2.94    0.82
  -2  11  -1    2.51    0.91
  -2  11  -1    1.59    0.80
  -2  11  -1    3.56    2.98
   2  11   1    1.42    0.83
  -2 -11   1   13.66    7.22
  -2  11  -1    1.13    0.84
   2 -11  -1    4.00    5.27
   2  11   1    0.67    0.85
  -2 -11   1    1.94    0.71
  -2  11   2    1.37    0.76
   2  11  -2    2.05    0.88
  -2  11   2    2.76    0.83
  -2 -11  -2    0.65    1.03
  -2  11   2    1.81    0.89
  -2  11   2    0.75    0.83
   2  11   2    1.70    0.75
   2  11   2    2.65    1.20
  -2  11  -2    3.07    1.01
   2  11   2    1.49    1.07
  -2  11  -2    2.08    0.92
   2  11   2    1.84    0.74
  -2 -11   2    1.37    0.92
   2  11  -3   31.09    2.17
  -2 -11  -3   28.86    2.29
  -2  11   3   30.10    2.01
  -2  11   3   31.89    2.22
  -2  11   3   31.92    1.96
   2 -11   3   29.01    2.19
  -2  11  -3   33.26    1.97
  -2  11  -3   31.19    2.08
  -2 -11   3   33.65    2.42
   2  11   3   28.94    2.05
  -2  11  -3   30.79    2.10
  -2  11  -3   32.65    2.01
   2  11   3   35.29    2.11
   2  11   3   33.01    2.04
  -2 -11   3   34.09    2.03
  -2  11   4    1.80    0.72
   2  11  -4    2.52    0.76
  -2  11   4    1.66    0.52
  -2  11   4    1.73    0.74
   2 -11   4    1.82    0.77
  -2 -11   4    0.16    0.64
  -2  11  -4    1.51    0.81
  -2  11  -4    1.90    0.58
   2  11   4    0.76    0.69
   2  11   4    1.43    0.75
   2  11   4    0.65    0.75
   2  11  -5    0.65    0.54
  -2  11   5    0.91    0.52
  -2  11   5    1.11    0.53
   2 -11   5    1.54    0.52
  -2 -11   5    0.45    0.47
  -2  11  -5    1.44    0.59
   2  11   5    1.07    0.56
   2  11   5    1.50    0.51
   2  11   5    1.26    0.83
   2 -11   6    0.60    0.31
  -2  11   6    0.16    0.36
  -2 -11  -6    0.37    0.29
   2  11  -6    0.55    0.34
  -2  11   6    0.71    0.35
  -2 -11   6    0.27    0.31
   2  11   6   -0.47    0.42
  -2  11  -6   -0.76    0.45
  -3  11   0   -0.55    0.86
  -3  11   0   -0.90    0.87
  -3  11   0   -0.15    0.90
  -3 -11   0   -0.09    1.02
   3  11   0    0.33    0.73
  -3  11   0    0.85    0.76
  -3  11   1    3.82    0.87
  -3 -11  -1    3.18    1.19
  -3  11   1    3.51    0.86
   3  11  -1    6.21    1.34
   3  11  -1    2.59    0.85
  -3  11   1    5.48    1.29
  -3  11   1    4.87    1.00
  -3 -11   1    2.29    0.72
   3  11   1    6.14    1.43
  -3  11  -1    4.54    1.32
  -3 -11   1    3.72    1.71
  -3  11  -1    4.39    1.03
  -3  11  -1    5.59    1.02
  -3 -11  -2   17.50    1.71
  -3  11   2   19.57    1.62
  -3  11   2   21.88    1.81
  -3  11   2   19.19    1.54
  -3  11   2   17.70    1.57
   3  11  -2   16.51    1.67
   3  11  -2   20.64    1.65
  -3  11  -2   16.56    1.58
   3  11   2   21.45    1.61
   3  11   2   21.37    1.69
  -3 -11   2   19.86    1.88
  -3  11  -2   19.08    1.51
  -3  11  -2   19.75    1.68
  -3 -11   2   17.29    1.49
  -3  11  -2   19.91    1.77
   3  11  -3    3.51    0.78
  -3  11   3    3.36    0.76
  -3  11   3    5.01    1.00
  -3  11   3    4.11    0.71
  -3 -11  -3    2.96    0.86
  -3  11  -3    2.37    0.76
  -3 -11   3    4.62    0.71
   3  11   3    5.07    0.82
  -3 -11   3    4.55    0.89
  -3  11  -3    2.99    0.79
  -3  11  -3    2.15    0.84
   3  11   3    2.89    0.75
  -3  11   4   -0.02    0.45
   3  11  -4   -0.40    0.64
  -3  11   4   -0.22    0.59
   3 -11   4   -0.27    0.61
  -3  11   4   -0.62    0.86
  -3 -11   4   -0.02    0.57
   3  11   4    0.53    0.65
  -3  11  -4   -0.49    0.89
   3  11   4   -0.75    0.55
   3 -11   5    4.73    0.66
  -3 -11  -5    2.86    0.44
   3  11  -5    4.15    0.60
  -3 -11   5    3.38    0.53
   3  11   5    3.65    0.54
  -3  11  -5    5.25    0.73
  -4  11   0   42.23    2.66
  -4 -11   0   41.55    2.76
   4  11   0   50.28    2.73
  -4  11   0   41.87    2.56
  -4  11   0   48.18    2.59
   4  11   0   45.90    2.47
   4  11  -1   10.41    1.42
   4  11  -1    8.00    1.31
  -4  11   1   10.81    1.39
  -4  11   1   10.28    1.34
  -4 -11  -1    8.81    1.20
  -4  11   1   10.40    1.36
  -4  11  -1    7.83    1.07
  -4 -11   1   10.81    1.60
   4  11   1    9.20    0.98
   4  11   1   12.00    1.44
  -4  11  -1   12.51    1.40
  -4 -11   1    7.84    1.26
  -4  11  -1   10.89    1.45
  -4  11   2   -0.09    0.74
  -4  11   2    1.96    0.84
  -4 -11  -2    0.49    0.76
  -4  11   2   -0.12    0.62
   4  11  -2    0.82    0.69
  -4  11   2    0.06    0.65
   4  11  -2    1.79    0.74
   4  11   2    1.03    0.69
   4  11   2    1.55    0.71
  -4 -11   2   -0.12    0.79
  -4  11  -2    0.00    0.84
  -4 -11   2   -0.06    0.59
  -4  11  -2   -0.15    0.73
  -4  11  -2    0.13    0.73
  -4  11   3    1.35    0.86
  -4  11   3    3.41    0.73
   4  11  -3    2.05    0.62
  -4 -11  -3    2.20    0.80
   4  11  -3    3.21    0.79
  -4  11   3    1.36    0.55
  -4  11  -3    4.12    0.78
  -4  11  -3    3.14    0.67
  -4 -11   3    2.21    0.76
  -4  11  -3    2.63    0.67
  -4 -11   3    2.54    0.60
   4  11   3    3.22    0.68
  -4  11   4   -0.37    0.63
  -4  11   4   -0.66    0.56
  -4 -11  -4    0.61    0.40
   4 -11   4   -0.34    0.48
   4  11  -4   -0.31    0.48
  -4  11   4    0.14    0.51
  -4 -11   4    0.87    0.48
  -4  11  -4    1.48    0.55
   4  11   4    0.90    0.51
  -4  11   5    1.65    0.58
   4  11  -5   -0.16    0.37
  -4 -11  -5    0.25    0.28
   4 -11   5    0.12    0.34
  -4  11  -5    0.07    0.36
  -4 -11   5    0.98    0.36
   4  11   5   -0.58    0.34
   5  11   0    0.65    0.73
  -5  11   0    1.23    0.69
  -5 -11   0    0.72    0.69
  -5  11   0   -0.49    0.64
  -5  11   0    0.06    0.67
  -5 -11  -1    0.02    0.74
   5  11  -1    0.04    0.72
   5  11  -1    0.08    0.95
  -5  11   1    0.41    0.68
  -5  11   1    0.97    0.64
  -5  11   1    0.48    0.64
  -5  11  -1    0.36    0.72
   5  11   1    0.55    0.62
  -5 -11   1    2.29    1.13
  -5  11  -1    0.03    0.70
  -5  11  -1   -0.01    0.69
  -5 -11  -2    0.34    0.63
  -5  11   2    1.58    0.63
   5  11  -2    1.30    0.65
   5  11  -2    0.09    0.79
  -5  11   2    0.44    0.53
  -5  11   2   -0.56    0.57
  -5 -11   2   -0.14    0.51
   5  11   2   -0.02    0.56
  -5 -11   2   -0.05    0.58
  -5  11  -2   -0.31    0.62
  -5  11  -2   -0.19    0.64
  -5  11  -2    0.51    0.64
  -5 -11  -3    2.20    0.98
  -5  11   3    3.75    0.64
   5  11  -3    4.07    0.72
   5  11  -3    2.72    0.56
  -5 -11  -3    4.10    0.60
  -5  11   3    4.32    0.63
   5  11   3    3.89    0.56
  -5  11  -3    2.01    0.93
  -5  11  -3    2.93    0.64
  -5  11  -3    2.69    0.61
  -5 -11   3    5.67    0.81
   5 -11   4   -0.01    0.36
  -5 -11  -4    0.43    0.33
   5  11   4    1.19    0.37
  -5  11  -4    0.98    0.42
  -5 -11   4    0.47    0.41
  -6 -11   0    0.25    0.49
  -6  11   0    2.07    0.56
  -6  11   0    0.78    0.51
  -6  11   0    1.05    0.59
   6  11   0    1.29    0.55
  -6  11   1    5.27    0.84
  -6 -11  -1    3.40    0.57
  -6  11   1    3.49    0.55
  -6  11   1    3.72    0.62
   6  11   1    5.55    0.83
  -6  11  -1    4.77    0.58
  -6 -11   1    5.26    0.83
  -6  11  -1    3.83    0.62
  -6  11  -1    4.01    0.63
   6  11  -2    1.40    0.50
  -6 -11  -2    0.45    0.43
  -6  11   2    1.21    0.46
  -6  11  -2    1.32    0.48
  -6 -11   2    0.84    0.47
  -6  11  -2    1.55    0.61
  -6  11  -2    1.46    0.44
  -6  11  -3    0.21    0.37
  -6  11  -3   -0.79    0.57
   6  11   3   -0.44    0.35
  -7 -11   0    0.22    0.36
   7  11   0    0.71    0.40
  -7  11   0    0.21    0.35
   7  11  -1    1.12    0.37
  -7 -11  -1    0.75    0.33
  -7  11  -1    1.94    0.34
  -7  11  -1    1.37    0.35
   7  11   1    1.05    0.36
   0  12   0  110.38    5.38
   0  12   0  108.03    5.37
   0  12   0  117.51    5.61
   0  12   1   -0.13    0.72
   0  12  -1   -0.28    0.75
   0  12  -1    0.18    0.78
   0  12   1    0.46    0.79
   0  12  -1    0.04    0.83
   0 -12   1   -0.87    0.67
   0  12   1    0.08    0.69
   0  12  -2   62.72    3.22
   0  12  -2   58.27    3.08
   0  12   2   57.58    3.07
   0 -12   2   57.97    3.09
   0  12   2   59.94    3.05
   0  12   2   57.16    3.15
   0  12   3   -0.24    0.66
   0 -12   3    0.73    0.66
   0  12   3   -0.93    0.64
   0 -12  -3    1.46    0.94
   0  12  -3   -0.11    0.72
   0  12   3    0.01    0.59
   0  12  -3   -0.04    0.72
   0  12   4   17.01    1.28
   0  12  -4   16.54    1.40
   0  12   4   15.24    1.28
   0  12   4   16.63    1.30
   0  12  -4   19.20    1.34
   0 -12   4   19.58    1.31
   0  12   5    0.75    0.48
   0 -12   5    0.23    0.42
   0  12  -5    0.99    0.41
   0  12   5   -0.09    0.34
  -1  12   0    0.64    0.72
   1  12   0    0.61    0.75
  -1  12   0    0.33    0.72
   1  12   0   -0.32    0.66
  -1  12   0   -0.53    0.78
   1  12   0   -0.17    0.72
   1 -12   1   69.49    3.78
  -1  12   1   74.36    3.73
  -1  12   1   73.92    3.72
  -1  12   1   74.52    3.84
   1  12  -1   79.16    3.85
   1  12  -1   74.33    3.71
  -1  12  -1   78.11    3.73
  -1  12  -1   72.25    3.84
   1  12   1   72.46    3.70
  -1 -12   1   67.42    3.68
   1  12   1   72.60    3.90
  -1  12  -1   73.73    3.75
   1  12   1   78.51    3.81
   1  12  -2    0.12    1.10
  -1  12   2    0.11    0.75
   1 -12   2   -0.08    0.77
  -1  12   2   -0.50    0.65
  -1  12   2   -1.03    0.65
   1  12  -2    0.52    0.89
   1  12   2    0.79    0.70
   1  12   2    0.72    0.68
  -1 -12   2   -0.53    0.67
  -1  12  -2   -0.69    0.73
   1  12   2    0.13    0.74
  -1  12  -2    0.11    0.75
   1  12   2    0.45    0.73
  -1  12   3   18.97    1.45
  -1 -12  -3   17.73    1.77
  -1  12   3   21.00    1.61
   1  12  -3   20.67    1.64
   1 -12   3   18.49    1.57
  -1  12   3   19.73    1.38
  -1 -12   3   18.92    1.80
   1  12   3   21.38    1.45
   1  12   3   18.29    1.53
  -1  12  -3   18.47    1.54
   1  12   3   21.28    1.50
   1  12   3   19.49    1.48
  -1  12  -3   19.07    1.50
  -1 -12   3   21.66    1.47
  -1  12   4    1.27    0.60
   1 -12   4    0.47    0.57
   1  12  -4    0.46    0.55
  -1  12   4    2.59    0.58
  -1  12   4    1.15    0.49
   1  12   4    1.84    0.57
   1  12   4    0.56    0.56
  -1 -12   4    0.62    0.53
  -1  12  -4    1.96    0.50
   1  12   4    0.72    0.67
  -1  12  -4    1.37    0.66
  -1  12   5   17.75    1.14
   1 -12   5   21.03    1.15
   1  12  -5   18.07    1.15
  -1  12   5   19.75    1.19
   1  12   5   19.07    1.18
   1  12   5   19.42    1.18
   1  12   5   18.13    1.17
  -1 -12   5   19.71    1.18
   2  12   0  102.39    4.88
   2  12   0   99.25    4.89
  -2  12   0   98.90    4.88
  -2  12   0  100.25    4.94
  -2  12   0  101.46    4.92
  -2 -12   0   95.25    5.11
  -2  12   0  100.43    4.89
  -2  12   1    0.45    0.70
   2  12  -1    0.94    0.71
  -2  12   1   -0.29    0.70
   2 -12   1   -0.75    0.79
  -2 -12  -1   -1.39    0.94
  -2  12   1   -0.10    0.65
  -2  12   1   -0.83    0.76
   2  12   1   -0.89    0.69
  -2  12  -1   -0.20    0.85
  -2 -12   1   -0.67    0.66
  -2  12  -1   -0.02    0.73
  -2  12  -1   -0.67    0.71
   2  12   1    0.37    0.61
  -2 -12   1   -1.06    0.99
  -2  12  -1   -0.86    0.71
  -2 -12  -2   30.64    2.27
  -2  12   2   33.32    2.04
  -2  12   2   33.16    2.02
  -2  12   2   37.05    2.22
   2  12  -2   35.40    2.12
   2 -12   2   34.84    2.18
   2  12   2   37.28    2.66
   2  12   2   35.94    2.07
  -2 -12   2   32.48    1.97
  -2  12  -2   35.06    2.14
  -2  12  -2   33.28    2.02
   2  12   2   33.43    2.08
  -2 -12   2   34.24    2.38
  -2  12  -2   33.80    2.02
  -2  12   3    1.86    0.74
  -2  12   3    0.94    0.58
  -2  12   3    1.77    0.66
   2 -12   3    2.42    0.81
  -2 -12  -3    1.48    0.85
   2  12  -3    1.56    0.70
  -2  12  -3    1.10    0.77
  -2  12  -3    1.74    0.57
   2  12   3    1.42    0.62
  -2 -12   3    1.81    0.79
   2  12   3    0.21    0.61
   2  12   3    3.33    1.27
  -2 -12   3    1.85    0.62
   2 -12   4   26.13    1.60
  -2  12   4   31.19    1.70
  -2  12   4   26.20    1.52
   2  12  -4   26.74    1.66
  -2  12   4   26.65    1.58
   2  12   4   26.80    1.64
   2  12   4   29.16    1.64
  -2 -12   4   29.43    1.57
  -2  12  -4   25.26    1.62
   2  12   4   26.06    1.93
   2  12  -5    0.76    0.39
  -2  12   5   -0.49    0.39
   2 -12   5    0.44    0.37
  -2 -12  -5    0.04    0.29
  -2  12   5    0.38    0.40
   2  12   5   -0.02    0.36
  -2 -12   5    0.27    0.34
  -2  12  -5    1.38    0.44
   3  12   0   -0.19    0.67
   3  12   0    1.27    0.64
  -3  12   0   -1.16    0.67
  -3 -12   0    0.58    0.85
  -3  12   0   -0.92    0.68
  -3  12   0    0.28    0.76
  -3  12   0    0.69    0.82
   3  12  -1   47.22    2.62
   3 -12   1   44.17    2.73
  -3  12   1   50.53    2.63
  -3  12   1   51.69    2.70
  -3  12   1   48.32    2.63
  -3  12   1   50.98    2.68
   3  12  -1   45.84    2.63
  -3 -12  -1   45.10    2.78
  -3  12  -1   49.23    2.59
   3  12   1   48.75    2.58
   3  12   1   50.81    2.67
  -3  12  -1   48.87    2.70
  -3  12  -1   51.11    2.69
  -3  12  -1   47.72    2.65
  -3 -12   1   44.63    2.82
  -3 -12  -2    0.67    0.78
  -3  12   2   -0.53    0.61
  -3  12   2    0.66    0.62
   3 -12   2   -0.01    0.74
   3  12  -2    0.34    0.68
  -3  12   2    0.49    0.62
   3  12   2   -0.20    0.57
  -3  12  -2    0.12    0.66
  -3 -12   2    1.19    0.64
  -3  12  -2    1.07    0.78
   3  12   2   -1.05    0.58
  -3 -12   2    1.19    0.77
  -3  12  -2    0.78    0.69
  -3 -12  -3   26.41    1.68
   3  12  -3   26.90    1.63
  -3  12   3   24.52    1.47
   3 -12   3   27.01    1.63
  -3  12   3   25.81    1.60
  -3  12   3   22.87    1.69
  -3  12  -3   24.12    1.68
  -3 -12   3   21.57    1.65
  -3 -12   3   27.31    1.52
  -3  12  -3   23.64    1.63
   3  12   3   27.08    1.63
   3  12   3   27.72    1.61
   3  12  -4    0.65    0.70
  -3 -12  -4    0.35    0.33
  -3  12   4    0.39    0.57
  -3  12   4    0.13    0.38
  -3  12   4   -0.45    0.40
  -3  12  -4   -0.71    0.57
   3  12   4    0.55    0.41
  -3 -12   4    0.15    0.44
   3 -12   5   12.62    0.80
  -3 -12   5   13.30    0.91
  -4  12   0   32.57    2.01
   4  12   0   34.15    1.94
  -4  12   0   32.42    1.98
  -4 -12   0   29.91    2.07
  -4  12   0   35.03    1.97
   4  12   0   33.21    1.91
  -4  12   1   -0.25    0.60
   4  12  -1    0.07    0.55
  -4 -12  -1   -0.24    0.61
  -4  12   1    1.09    0.62
   4  12  -1   -0.36    0.63
  -4  12   1   -0.83    0.59
   4  12   1   -0.09    0.60
  -4  12  -1   -0.61    0.64
   4  12   1    0.53    0.58
  -4  12  -1   -0.82    0.66
  -4 -12   1    1.63    0.71
  -4  12  -1    0.30    0.63
   4 -12   2   40.45    2.36
  -4  12   2   43.22    2.27
   4  12  -2   44.43    2.30
  -4 -12  -2   43.98    2.37
   4  12  -2   42.59    2.33
  -4  12   2   46.58    2.34
   4  12   2   46.86    2.33
  -4  12  -2   44.70    2.33
  -4 -12   2   46.56    2.38
  -4  12  -2   42.67    2.35
  -4  12  -2   44.23    2.39
  -4 -12   2   39.92    2.28
   4  12   2   45.83    2.58
  -4 -12  -3    1.17    0.42
   4  12  -3    1.34    0.47
  -4  12   3    1.63    0.72
   4 -12   3    1.73    0.59
  -4 -12  -3    2.00    0.56
  -4  12   3    1.47    0.48
  -4  12  -3    0.60    0.49
  -4 -12   3    1.95    0.47
  -4  12  -3    0.98    0.50
   4 -12   4   10.21    0.75
  -4  12   4    9.40    0.78
   4  12  -4    8.66    0.78
  -4 -12   4    8.75    0.71
  -4  12  -4    8.37    0.71
   4  12   4    8.39    0.73
  -5 -12   0    0.19    0.52
  -5  12   0    0.68    0.54
  -5  12   0    1.05    0.65
  -5  12   0    0.24    0.51
  -5  12   1   35.32    1.85
   5  12  -1   36.69    1.88
  -5 -12  -1   35.65    1.89
  -5  12   1   38.02    1.87
  -5  12  -1   33.07    2.13
   5  12   1   32.68    2.05
  -5  12  -1   34.04    1.88
  -5  12  -1   32.64    1.88
   5 -12   2    1.17    0.49
  -5  12   2    1.04    0.50
   5  12  -2    0.91    0.56
  -5  12   2    1.44    0.42
  -5 -12  -2    1.72    0.47
  -5  12  -2    0.33    0.46
  -5  12  -2    1.23    0.45
  -5 -12   2    1.85    0.53
  -5  12  -2    0.71    0.58
   5  12   2    1.12    0.43
   5 -12   3   15.63    0.97
  -5  12  -3   16.13    1.02
   5  12   3   17.43    0.98
   6  12   0   26.46    1.31
  -6  12   0   21.21    1.27
  -6 -12   0   26.49    1.29
  -6  12   0   21.44    1.29
  -6 -12  -1    2.66    0.41
  -6  12   1    4.52    0.58
   6  12   1    4.39    0.63
  -6  12  -1    3.95    0.54
  -6  12  -1    2.87    0.41
   0  13   0    0.22    0.79
   0  13   0    0.27    0.62
   0  13   0   -0.90    0.63
   0  13  -1    3.14    0.73
   0  13   1    1.36    0.67
   0  13  -1    1.85    0.63
   0  13   1    2.92    0.69
   0  13   1    2.62    0.61
   0 -13  -2   -0.59    0.70
   0  13  -2    0.54    0.60
   0  13   2   -0.33    0.56
   0  13   2    0.42    0.58
   0  13   2   -0.42    0.57
   0 -13   2    0.00    0.62
   0  13   3    2.60    0.59
   0 -13  -3    1.20    0.79
   0 -13   3    0.19    0.84
   0  13  -3    3.46    0.59
   0  13   3    2.81    0.70
   0  13   4   -0.27    0.46
   0  13  -4   -0.14    0.39
   0 -13   4   -0.56    0.47
   0  13   4    0.22    0.39
  -1  13   0    0.57    0.70
   1  13   0    1.01    1.11
  -1  13   0   -0.84    0.62
  -1  13   0    0.58    0.60
   1  13   0   -0.01    0.62
  -1  13   1    0.13    0.60
   1  13  -1    1.75    0.66
  -1 -13  -1   -0.17    0.82
  -1  13   1    1.03    0.58
  -1  13   1   -0.32    0.66
  -1 -13   1    1.04    0.82
  -1  13  -1    0.89    0.64
   1  13   1   -0.61    0.58
   1  13   1    0.11    0.58
   1  13   1    3.09    1.03
  -1  13  -1    1.37    0.64
  -1  13  -1    1.08    0.67
  -1 -13  -2    0.53    0.72
   1 -13   2    1.67    0.67
  -1  13   2    1.29    0.57
   1  13  -2    2.14    0.68
  -1  13   2    2.15    0.65
  -1  13   2    1.00    0.57
   1  13   2    1.28    0.58
  -1 -13   2    3.34    0.80
   1  13   2    3.88    1.06
  -1  13  -2    2.09    0.64
  -1  13  -2    3.11    0.65
   1  13  -3    0.28    0.54
   1 -13   3    0.19    0.79
  -1  13   3    0.06    0.52
  -1  13   3    0.96    0.63
  -1  13   3    0.28    0.41
  -1 -13  -3    0.62    0.73
  -1 -13   3   -0.39    0.49
   1  13   3    0.72    0.49
  -1  13  -3    1.02    0.46
  -1  13  -3    0.48    0.56
   1 -13  -3    0.04    0.77
   1  13   3    0.98    0.79
   1  13  -4   -0.53    0.43
  -1  13   4    0.93    0.42
  -1  13   4    0.11    0.32
  -1 -13   4    0.57    0.42
   1  13   4    0.04    0.37
  -2  13   0    0.25    0.57
  -2  13   0    0.66    0.65
  -2 -13   0    0.01    0.76
  -2  13   0    0.18    0.61
   2  13   0    0.45    0.58
  -2  13   1    1.08    0.72
   2  13  -1    0.10    0.57
   2 -13   1    3.73    0.85
  -2  13   1    1.20    0.58
  -2  13   1   -0.56    0.64
  -2 -13  -1    0.18    0.73
  -2  13  -1    1.00    0.66
  -2  13  -1    0.54    0.58
  -2  13  -1    1.71    0.56
   2  13   1    0.37    0.58
  -2 -13   1    0.41    0.80
  -2  13   2    1.56    0.60
   2  13  -2    2.43    0.68
   2 -13   2    1.76    0.82
  -2  13   2    1.55    0.55
  -2  13   2    1.95    0.53
  -2 -13  -2    2.02    0.67
  -2 -13   2    2.29    0.79
   2  13   2    1.60    0.76
  -2  13  -2    1.47    0.62
  -2 -13   2    1.25    0.70
  -2  13  -2    3.33    0.56
   2  13   2    1.72    0.56
   2 -13   3   -0.02    0.48
   2  13  -3   -0.42    0.64
  -2  13   3    0.66    0.70
  -2  13   3    1.56    0.46
  -2 -13  -3    0.66    0.63
  -2  13   3    0.84    0.59
   2  13   3    0.01    0.67
   2  13   3    0.58    0.40
  -2  13  -3    0.27    0.50
  -2 -13   3    0.49    0.59
  -2  13   4   -0.82    0.58
   2 -13   4   -0.57    0.37
  -2 -13  -4    0.08    0.32
  -2  13   4    0.44    0.39
   2  13  -4   -0.71    0.34
  -3 -13   0    0.10    0.64
   3  13   0    0.08    0.50
  -3  13   0    0.09    0.57
  -3  13   0    0.40    0.52
  -3  13   1    1.88    0.68
  -3  13   1    0.59    0.53
  -3  13   1   -0.24    0.54
  -3 -13  -1    0.66    0.62
   3  13  -1    0.36    0.48
  -3 -13   1    0.19    0.57
  -3  13  -1    1.28    0.61
   3  13   1    1.43    0.60
  -3 -13  -2    1.36    0.54
   3  13  -2    0.22    0.54
  -3  13   2    1.53    0.55
   3 -13   2   -0.46    0.59
  -3  13   2   -0.51    0.47
  -3  13  -2   -0.30    0.75
  -3  13  -2    0.02    0.59
   3  13   2   -0.41    0.49
  -3 -13   2   -0.56    0.56
   3  13   2    0.09    0.56
  -3  13   3   -0.27    0.33
   3  13  -3    0.22    0.39
  -3  13   3    0.57    0.42
   3 -13   3    0.37    0.45
  -3  13  -3   -0.30    0.49
  -4  13   0   -0.11    0.49
  -4 -13   0    0.36    0.51
  -4  13   0    1.14    0.45
   4  13   0   -0.03    0.64
  -4  13   1   -0.99    0.42
  -4  13   1    0.06    0.43
   4  13  -1   -0.84    0.51
  -4 -13  -1    0.27    0.45
  -4 -13   1   -0.50    0.46
  -4  13  -1   -0.30    0.44
  -4  13  -1    0.53    0.43
   4  13   1    0.46    0.49
  -4  13   2    1.78    0.41
  -4  13   2    3.39    0.61
  -4 -13  -2    2.80    0.45
  -4  13  -2    2.64    0.49
  -5 -13   0    0.11    0.40
  -5  13   0    0.80    0.33
   0  14   0   40.88    2.25
   0  14   0   36.73    2.40
   0 -14  -1   -1.19    0.63
   0  14   1    0.24    0.49
   0  14   1   -0.07    0.59
   0 -14   1   -0.30    0.65
   0 -14   2   14.43    1.27
   0  14  -2   14.67    1.01
   0 -14  -2   15.54    1.22
   0  14   2   16.28    1.10
   0  14   3    0.33    0.29
  -1 -14   0   -0.35    0.64
  -1  14   0    0.39    0.68
  -1  14   0   -0.71    0.48
   1  14   0    0.52    0.53
  -1  14   0   -0.54    0.57
  -1  14   1   26.22    1.58
  -1 -14  -1   27.49    1.67
  -1  14   1   28.88    1.54
  -1  14   1   28.45    1.61
   1  14  -1   25.42    1.54
  -1  14  -1   25.35    1.56
  -1  14  -1   32.14    1.78
   1  14   1   27.49    1.58
  -1 -14   1   28.92    1.74
  -1  14   2    0.89    0.42
  -1  14   2    0.57    0.45
  -1  14   2    1.06    0.46
   1  14  -2    0.46    0.40
   1 -14   2    1.57    0.64
   1  14   2    0.19    0.42
   1 -14  -2    1.19    0.78
  -1 -14   2   -0.40    0.70
  -2  14   0   24.04    1.30
  -2  14   0   21.18    1.36
  -2 -14   0   18.78    1.34
   2  14   0   23.88    1.37
   2  14  -1   -0.49    0.42
  -2  14   1   -0.36    0.42
  -2 -14  -1    0.29    0.54
  -2  14   1    0.21    0.48
  -2 -14   1    0.27    0.58
  -2  14  -1   -0.17    0.52
   2  14   1    0.75    0.40
  -2  14   2    4.37    0.57
  -2  14   2    5.12    0.63
  -3 -14   0    0.29    0.46
  -3  14   0   -0.13    0.37
  -3  14   1   12.26    0.87
  -3 -14  -1   12.74    0.88
  -3  14  -1   12.35    0.85
   0   0   0    0.00    0.00
;
_shelx_hkl_checksum               30442
_olex2_submission_special_instructions 'No special instructions were received'
