data_co_formate_393k
_audit_creation_date              2017-06-21
_audit_creation_method
;
Olex2 1.2
(compiled 2017.03.28 svn.r3405 for OlexSys, GUI svn.r5337)
;
_shelx_SHELXL_version_number      '2016/6'
_publ_contact_author_address      ?
_publ_contact_author_email        ?
_publ_contact_author_id_orcid     ?
_publ_contact_author_name         ''
_publ_contact_author_phone        ?
_publ_section_references
;
Dolomanov, O.V., Bourhis, L.J., Gildea, R.J, Howard, J.A.K. & Puschmann, H.
 (2009), J. Appl. Cryst. 42, 339-341.

Sheldrick, G.M. (2008). Acta Cryst. A64, 112-122.
;
_chemical_name_common             ?
_chemical_name_systematic         ?
_chemical_formula_moiety          '0.25(C12 H12 Co4 O24), H5 N2'
_chemical_formula_sum             'C3 H8 Co N2 O6'
_chemical_formula_weight          227.04
_chemical_absolute_configuration  ad
_chemical_melting_point           ?
loop_
  _atom_type_symbol
  _atom_type_description
  _atom_type_scat_dispersion_real
  _atom_type_scat_dispersion_imag
  _atom_type_scat_source
 'C' 'C' 0.0181 0.0091 'International Tables Vol C Tables 4.2.6.8 and 6.1.1.4'
 'H' 'H' 0.0000 0.0000 'International Tables Vol C Tables 4.2.6.8 and 6.1.1.4'
 'Co' 'Co' -2.3653 3.6143
 'International Tables Vol C Tables 4.2.6.8 and 6.1.1.4'
 'N' 'N' 0.0311 0.0180 'International Tables Vol C Tables 4.2.6.8 and 6.1.1.4'
 'O' 'O' 0.0492 0.0322 'International Tables Vol C Tables 4.2.6.8 and 6.1.1.4'

_shelx_space_group_comment
;
The symmetry employed for this shelxl refinement is uniquely defined
by the following loop, which should always be used as a source of
symmetry information in preference to the above space-group names.
They are only intended as comments.
;
_space_group_crystal_system       'orthorhombic'
_space_group_IT_number            62
_space_group_name_H-M_alt         'P n m a'
_space_group_name_Hall            '-P 2ac 2n'
loop_
  _space_group_symop_operation_xyz
 'x, y, z'
 '-x+1/2, -y, z+1/2'
 '-x, y+1/2, -z'
 'x+1/2, -y+1/2, -z+1/2'
 '-x, -y, -z'
 'x-1/2, y, -z-1/2'
 'x, -y-1/2, z'
 '-x-1/2, y-1/2, z-1/2'

_cell_length_a                    8.5650(9)
_cell_length_b                    11.6420(12)
_cell_length_c                    7.8673(8)
_cell_angle_alpha                 90
_cell_angle_beta                  90
_cell_angle_gamma                 90
_cell_volume                      784.48(14)
_cell_formula_units_Z             4
_cell_measurement_reflns_used     4799
_cell_measurement_temperature     393(2)
_cell_measurement_theta_max       72.16
_cell_measurement_theta_min       7.61
_shelx_estimated_absorpt_T_max    0.434
_shelx_estimated_absorpt_T_min    0.244
_exptl_absorpt_coefficient_mu     17.257
_exptl_absorpt_correction_T_max   0.3438
_exptl_absorpt_correction_T_min   0.1622
_exptl_absorpt_correction_type    multi-scan
_exptl_absorpt_process_details
;
SADABS-2016/2 (Bruker,2016/2) was used for absorption correction.
wR2(int) was 0.1175 before and 0.0669 after correction.
The Ratio of minimum to maximum transmission is 0.4718.
The \l/2 correction factor is Not present.
;
_exptl_absorpt_special_details    ?
_exptl_crystal_colour             pink
_exptl_crystal_density_diffrn     1.922
_exptl_crystal_density_meas       ?
_exptl_crystal_density_method     ?
_exptl_crystal_description        block
_exptl_crystal_F_000              460
_exptl_crystal_size_max           0.114
_exptl_crystal_size_mid           0.097
_exptl_crystal_size_min           0.058
_exptl_transmission_factor_max    ?
_exptl_transmission_factor_min    ?
_diffrn_reflns_av_R_equivalents   0.0561
_diffrn_reflns_av_unetI/netI      0.0200
_diffrn_reflns_Laue_measured_fraction_full 1.000
_diffrn_reflns_Laue_measured_fraction_max 0.999
_diffrn_reflns_limit_h_max        10
_diffrn_reflns_limit_h_min        -10
_diffrn_reflns_limit_k_max        14
_diffrn_reflns_limit_k_min        -14
_diffrn_reflns_limit_l_max        9
_diffrn_reflns_limit_l_min        -9
_diffrn_reflns_number             11333
_diffrn_reflns_point_group_measured_fraction_full 1.000
_diffrn_reflns_point_group_measured_fraction_max 0.999
_diffrn_reflns_theta_full         67.679
_diffrn_reflns_theta_max          72.444
_diffrn_reflns_theta_min          6.792
_diffrn_ambient_temperature       393.0
_diffrn_detector_area_resol_mean  ?
_diffrn_measured_fraction_theta_full 1.000
_diffrn_measured_fraction_theta_max 0.999
_diffrn_measurement_device_type   'Bruker D8 Venture PHOTON 100 CMOS'
_diffrn_measurement_method        'omega scans'
_diffrn_radiation_monochromator   mirrors
_diffrn_radiation_type            CuK\a
_diffrn_radiation_wavelength      1.54178
_diffrn_source                    'INCOATEC Imus micro-focus source'
_diffrn_standards_number          0
_reflns_Friedel_coverage          0.000
_reflns_Friedel_fraction_full     .
_reflns_Friedel_fraction_max      .
_reflns_number_gt                 667
_reflns_number_total              823
_reflns_special_details
;
 Reflections were merged by SHELXL according to the crystal
 class for the calculation of statistics and refinement.
 
 _reflns_Friedel_fraction is defined as the number of unique
 Friedel pairs measured divided by the number that would be
 possible theoretically, ignoring centric projections and
 systematic absences.
;
_reflns_threshold_expression      'I > 2\s(I)'
_computing_cell_refinement        'SAINT v8.37A (Bruker, 2015)'
_computing_data_collection        ?
_computing_data_reduction         'SAINT v8.37A (Bruker, 2015)'
_computing_molecular_graphics     'Olex2 (Dolomanov et al., 2009)'
_computing_publication_material   'Olex2 (Dolomanov et al., 2009)'
_computing_structure_refinement   'XL (Sheldrick, 2008)'
_computing_structure_solution     ?
_refine_diff_density_max          0.183
_refine_diff_density_min          -0.443
_refine_diff_density_rms          0.069
_refine_ls_extinction_coef        .
_refine_ls_extinction_method      none
_refine_ls_goodness_of_fit_ref    1.114
_refine_ls_hydrogen_treatment     mixed
_refine_ls_matrix_type            full
_refine_ls_number_parameters      74
_refine_ls_number_reflns          823
_refine_ls_number_restraints      7
_refine_ls_R_factor_all           0.0353
_refine_ls_R_factor_gt            0.0263
_refine_ls_restrained_S_all       1.111
_refine_ls_shift/su_max           0.000
_refine_ls_shift/su_mean          0.000
_refine_ls_structure_factor_coef  Fsqd
_refine_ls_weighting_details
'w=1/[\s^2^(Fo^2^)+(0.0340P)^2^+0.1461P] where P=(Fo^2^+2Fc^2^)/3'
_refine_ls_weighting_scheme       calc
_refine_ls_wR_factor_gt           0.0601
_refine_ls_wR_factor_ref          0.0655
_refine_special_details           ?
_olex2_refinement_description
;
1. Fixed Uiso
 At 1.2 times of:
  All C(H) groups, All N(H,H,H) groups
 At 1.5 times of:
  All N(H,H) groups
2. Restrained distances
 N8-N7
 1.44 with sigma of 0.0051
 N8-H8A = N8-H8B
 0.91 with sigma of 0.02
 H8A-N7 = H8B-N7
 1.94 with sigma of 0.02
 H8B-H7A
 -2.2 with sigma of 0.02
 H8B-H8A
 1.52 with sigma of 0.04
3. Others
 Fixed Sof: N7(0.5) H7A(0.5) H7B(0.5) H7C(0.5) N8(0.5) H8A(0.5) H8B(0.5)
4.a Aromatic/amide H refined with riding coordinates:
 C3(H3), C6(H6)
4.b Idealised Me refined as rotating group:
 N7(H7A,H7B,H7C)
;
_atom_sites_solution_hydrogens    mixed
_atom_sites_solution_primary      ?
_atom_sites_solution_secondary    ?
loop_
  _atom_site_label
  _atom_site_type_symbol
  _atom_site_fract_x
  _atom_site_fract_y
  _atom_site_fract_z
  _atom_site_U_iso_or_equiv
  _atom_site_adp_type
  _atom_site_occupancy
  _atom_site_site_symmetry_order
  _atom_site_calc_flag
  _atom_site_refinement_flags_posn
  _atom_site_refinement_flags_adp
  _atom_site_refinement_flags_occupancy
  _atom_site_disorder_assembly
  _atom_site_disorder_group
 Co1 Co 0.500000 0.500000 0.500000 0.02732(15) Uani 1 2 d S T P . .
 O2 O 0.59616(16) 0.43264(12) 0.27529(17) 0.0417(3) Uani 1 1 d . . . . .
 C3 C 0.7195(3) 0.4694(2) 0.2149(3) 0.0422(5) Uani 1 1 d . . . . .
 H3 H 0.769899 0.527538 0.274542 0.051 Uiso 1 1 calc R . . . .
 O4 O 0.78208(16) 0.43558(13) 0.08184(17) 0.0405(3) Uani 1 1 d . . . . .
 O5 O 0.53142(17) 0.34452(11) 0.63171(18) 0.0427(3) Uani 1 1 d . . . . .
 C6 C 0.5222(3) 0.250000 0.5591(4) 0.0361(6) Uani 1 2 d S T P . .
 H6 H 0.507234 0.249999 0.442060 0.043 Uiso 1 2 calc RS T P . .
 N7 N 0.5693(5) 0.2621(18) -0.0145(4) 0.055(3) Uani 0.5 1 d D . . A -1
 H7A H 0.573763 0.288623 -0.120487 0.066 Uiso 0.5 1 calc DGR . . A -1
 H7B H 0.637434 0.205032 -0.002078 0.066 Uiso 0.5 1 calc GR . . A -1
 H7C H 0.592561 0.318439 0.057731 0.066 Uiso 0.5 1 calc GR . . A -1
 N8 N 0.4149(6) 0.2208(7) 0.0200(7) 0.093(3) Uani 0.5 1 d D . . A -1
 H8A H 0.413(5) 0.188(5) 0.125(4) 0.139 Uiso 0.5 1 d DR . . . .
 H8B H 0.387(5) 0.168(4) -0.060(4) 0.139 Uiso 0.5 1 d DR . . . .

loop_
  _atom_site_aniso_label
  _atom_site_aniso_U_11
  _atom_site_aniso_U_22
  _atom_site_aniso_U_33
  _atom_site_aniso_U_23
  _atom_site_aniso_U_13
  _atom_site_aniso_U_12
 Co1 0.0307(2) 0.0286(2) 0.0227(2) -0.00036(16) 0.00016(15) -0.00182(17)
 O2 0.0427(7) 0.0459(8) 0.0363(7) -0.0082(6) 0.0118(6) -0.0078(7)
 C3 0.0466(11) 0.0477(11) 0.0322(9) -0.0093(9) 0.0069(9) -0.0130(10)
 O4 0.0391(7) 0.0498(8) 0.0325(6) -0.0052(6) 0.0082(6) -0.0061(7)
 O5 0.0616(9) 0.0297(7) 0.0369(7) 0.0003(6) -0.0094(7) -0.0007(7)
 C6 0.0446(15) 0.0333(14) 0.0305(13) 0.000 -0.0042(11) 0.000
 N7 0.077(2) 0.035(8) 0.0524(18) 0.002(3) -0.0243(15) -0.003(3)
 N8 0.080(3) 0.104(9) 0.095(3) 0.024(4) 0.002(3) -0.006(4)

_geom_special_details
;
 All esds (except the esd in the dihedral angle between two l.s. planes)
 are estimated using the full covariance matrix.  The cell esds are taken
 into account individually in the estimation of esds in distances, angles
 and torsion angles; correlations between esds in cell parameters are only
 used when they are defined by crystal symmetry.  An approximate (isotropic)
 treatment of cell esds is used for estimating esds involving l.s. planes.
;
loop_
  _geom_bond_atom_site_label_1
  _geom_bond_atom_site_label_2
  _geom_bond_distance
  _geom_bond_site_symmetry_2
  _geom_bond_publ_flag
 Co1 O2 2.1021(13) 5_666 ?
 Co1 O2 2.1021(13) . ?
 Co1 O4 2.1121(13) 6_556 ?
 Co1 O4 2.1121(13) 2_665 ?
 Co1 O5 2.1030(13) . ?
 Co1 O5 2.1030(13) 5_666 ?
 O2 C3 1.234(2) . ?
 C3 H3 0.9300 . ?
 C3 O4 1.241(2) . ?
 O5 C6 1.2422(19) . ?
 C6 H6 0.9300 . ?
 N7 H7A 0.8900 . ?
 N7 H7B 0.8900 . ?
 N7 H7C 0.8900 . ?
 N7 N8 1.434(5) . ?
 N8 H8A 0.914(19) . ?
 N8 H8B 0.914(19) . ?

loop_
  _geom_angle_atom_site_label_1
  _geom_angle_atom_site_label_2
  _geom_angle_atom_site_label_3
  _geom_angle
  _geom_angle_site_symmetry_1
  _geom_angle_site_symmetry_3
  _geom_angle_publ_flag
 O2 Co1 O2 180.00(7) 5_666 . ?
 O2 Co1 O4 92.44(6) 5_666 6_556 ?
 O2 Co1 O4 87.56(6) . 6_556 ?
 O2 Co1 O4 87.56(6) 5_666 2_665 ?
 O2 Co1 O4 92.44(6) . 2_665 ?
 O2 Co1 O5 87.53(6) 5_666 . ?
 O2 Co1 O5 92.47(6) 5_666 5_666 ?
 O2 Co1 O5 87.53(6) . 5_666 ?
 O2 Co1 O5 92.47(6) . . ?
 O4 Co1 O4 180.0 2_665 6_556 ?
 O5 Co1 O4 92.43(6) 5_666 6_556 ?
 O5 Co1 O4 87.57(6) 5_666 2_665 ?
 O5 Co1 O4 87.57(6) . 6_556 ?
 O5 Co1 O4 92.43(6) . 2_665 ?
 O5 Co1 O5 180.0 . 5_666 ?
 C3 O2 Co1 121.96(13) . . ?
 O2 C3 H3 117.1 . . ?
 O2 C3 O4 125.8(2) . . ?
 O4 C3 H3 117.1 . . ?
 C3 O4 Co1 121.78(14) . 2_664 ?
 C6 O5 Co1 121.86(15) . . ?
 O5 C6 O5 124.7(3) . 7_565 ?
 O5 C6 H6 117.6 7_565 . ?
 O5 C6 H6 117.6 . . ?
 H7A N7 H7B 109.5 . . ?
 H7A N7 H7C 109.5 . . ?
 H7B N7 H7C 109.5 . . ?
 N8 N7 H7A 109.5 . . ?
 N8 N7 H7B 109.5 . . ?
 N8 N7 H7C 109.5 . . ?
 N7 N8 H8A 109(2) . . ?
 N7 N8 H8B 109.9(19) . . ?
 H8A N8 H8B 110(4) . . ?

loop_
  _geom_torsion_atom_site_label_1
  _geom_torsion_atom_site_label_2
  _geom_torsion_atom_site_label_3
  _geom_torsion_atom_site_label_4
  _geom_torsion
  _geom_torsion_site_symmetry_1
  _geom_torsion_site_symmetry_2
  _geom_torsion_site_symmetry_3
  _geom_torsion_site_symmetry_4
  _geom_torsion_publ_flag
 Co1 O2 C3 O4 -178.70(17) . . . . ?
 Co1 O5 C6 O5 -176.02(17) . . . 7_565 ?
 O2 C3 O4 Co1 -176.64(18) . . . 2_664 ?

_shelx_res_file
;
TITL co_formate_120c_a.res in Pnma
    co_formate_393k.res
    created by SHELXL-2016/6 at 17:13:01 on 21-Jun-2017
REM Old TITL Co_formate_120C in Pnma
REM SHELXT solution in Pnma
REM R1 0.091, Rweak 0.002, Alpha 0.018, Orientation as input
REM Formula found by SHELXT: C5 O6 Co
CELL 1.54178 8.565 11.642 7.8673 90 90 90
ZERR 4 0.0009 0.0012 0.0008 0 0 0
LATT 1
SYMM 0.5-X,-Y,0.5+Z
SYMM -X,0.5+Y,-Z
SYMM 0.5+X,0.5-Y,0.5-Z
SFAC C H Co N O
UNIT 12 32 4 8 24
DFIX 1.44 0.0051 N8 N7
DFIX 0.91 N8 H8a N8 H8b
DFIX 1.94 H8a N7 H8b N7
DFIX -2.2 H8b H7a
DANG 1.52 H8b H8a

L.S. 4 0 0
PLAN  20
SIZE 0.058 0.097 0.114
TEMP 119.85
bond
BOND $H
conf
list 4
fmap 2 53
acta
REM <olex2.extras>
REM <HklSrc "%.\\Co_formate_393K.hkl">
REM </olex2.extras>

WGHT    0.034000    0.146100
FVAR       0.29257
CO1   3    0.500000    0.500000    0.500000    10.50000    0.03066    0.02863 =
         0.02268   -0.00036    0.00016   -0.00182
O2    5    0.596156    0.432638    0.275289    11.00000    0.04275    0.04589 =
         0.03631   -0.00819    0.01176   -0.00782
C3    1    0.719469    0.469375    0.214946    11.00000    0.04656    0.04773 =
         0.03221   -0.00928    0.00693   -0.01295
AFIX  43
H3    2    0.769899    0.527538    0.274542    11.00000   -1.20000
AFIX   0
O4    5    0.782078    0.435576    0.081838    11.00000    0.03911    0.04983 =
         0.03248   -0.00523    0.00815   -0.00609
O5    5    0.531421    0.344522    0.631707    11.00000    0.06164    0.02969 =
         0.03691    0.00034   -0.00942   -0.00072
C6    1    0.522166    0.250000    0.559148    10.50000    0.04458    0.03327 =
         0.03047    0.00000   -0.00424    0.00000
AFIX  43
H6    2    0.507234    0.249999    0.442060    10.50000   -1.20000
AFIX   0

PART -1
N7    4    0.569294    0.262136   -0.014479    10.50000    0.07727    0.03502 =
         0.05238    0.00156   -0.02430   -0.00265
AFIX 137
H7A   2    0.573763    0.288623   -0.120487    10.50000   -1.20000
H7B   2    0.637434    0.205032   -0.002078    10.50000   -1.20000
H7C   2    0.592561    0.318439    0.057731    10.50000   -1.20000
AFIX   0
N8    4    0.414859    0.220761    0.019986    10.50000    0.07972    0.10358 =
         0.09516    0.02415    0.00192   -0.00575
PART 0
H8A   2    0.412967    0.187567    0.125278    10.50000   -1.50000
H8B   2    0.386639    0.167825   -0.060129    10.50000   -1.50000
HKLF 4




REM  co_formate_120c_a.res in Pnma
REM R1 =  0.0263 for     667 Fo > 4sig(Fo)  and  0.0353 for all     823 data
REM     74 parameters refined using      7 restraints

END

WGHT      0.0340      0.1461

REM Highest difference peak  0.183,  deepest hole -0.443,  1-sigma level  0.069
Q1    1   0.7211  0.5800  0.2291  11.00000  0.05    0.18
Q2    1   0.8235  0.4762  0.3352  11.00000  0.05    0.18
Q3    1   0.6621  0.3420  0.2484  11.00000  0.05    0.15
Q4    1   0.6802  0.4334  0.2962  11.00000  0.05    0.14
Q5    1   0.7189  0.3505  0.6690  11.00000  0.05    0.14
Q6    1   0.6947  0.2500 -0.1782  10.50000  0.05    0.13
Q7    1   0.4138  0.2500  0.4372  10.50000  0.05    0.13
Q8    1   0.7573  0.3595  0.0939  11.00000  0.05    0.12
Q9    1   0.7981  0.4978  0.0652  11.00000  0.05    0.12
Q10   1   0.5378  0.3972  0.1238  11.00000  0.05    0.12
Q11   1   0.4325  0.3620  0.7488  11.00000  0.05    0.12
Q12   1   0.6305  0.3647  0.7576  11.00000  0.05    0.12
Q13   1   0.7083  0.2500  0.5664  10.50000  0.05    0.12
Q14   1   0.9167  0.5449  0.3867  11.00000  0.05    0.12
Q15   1   0.5766  0.3396  0.2411  11.00000  0.05    0.12
Q16   1   0.2973  0.1972 -0.2742  11.00000  0.05    0.11
Q17   1   0.5473  0.4181 -0.0110  11.00000  0.05    0.11
Q18   1   0.5028  0.2500  0.1017  10.50000  0.05    0.11
Q19   1   0.5898  0.4731  0.3336  11.00000  0.05    0.11
Q20   1   0.4398  0.2803  0.2906  11.00000  0.05    0.11
;
_shelx_res_checksum               89260
_shelx_hkl_file
;
   0   0  -1    0.59    0.47
   0   0   1    0.03    0.19
   0   0   1   -0.04    0.24
   0   0   2  478.70   23.89
   0   0   2  515.76   23.12
   0   0   2  541.20   23.19
   0   0   2  534.96   24.00
   0   0   3    1.44    2.24
   0   0   3   -0.83    2.11
   0   0   3    0.06    0.54
   0   0   3    0.31    0.75
   0   0  -3   -0.25    1.00
   0   0   4  480.55   21.32
   0   0  -4  474.00   22.01
   0   0   4  445.99   21.40
   0   0   5    0.40    0.80
   0   0   5    2.42    1.36
   0   0  -5    1.97    1.98
   0   0   5    1.92    1.42
   0   0   5    0.02    1.65
   0   0   5   -1.31    0.62
   0   0   5   -1.14    0.92
   0   0   5   -1.14    0.77
   0   0   6   33.49    2.31
   0   0   6   31.83    2.28
   0   0   6   35.13    2.13
   0   0   6   30.42    3.45
   0   0   6   29.51    4.09
   0   0  -6   38.47    5.41
   0   0   6   34.24    2.27
   0   0   7   -0.20    0.75
   0   0   7   -1.70    2.65
   0   0   7    0.01    1.05
   0   0  -7   -1.10    2.57
   0   0   7   -0.40    0.94
   0   0   7    0.15    0.87
   0   0   8   73.96    3.65
   0   0   8   68.13    4.18
   0   0   8   77.12    3.63
   0   0   9    0.03    0.56
   0   0  -9    0.22    0.48
   0   0   9   -0.22    0.67
  -1   0   0    0.25    0.15
   1   0   0    0.08    0.26
  -1   0   0    0.06    0.39
  -1   0   0    0.14    0.18
  -1   0   0    0.18    0.38
   1   0   0    0.00    0.32
   1   0  -1 1000.00   39.56
  -1   0   1  997.38   39.34
   1   0   1  925.90   39.27
   1   0   1  851.53   39.97
  -1   0  -1  751.73   39.37
  -1   0  -1  871.52   39.52
  -1   0  -1  925.31   40.01
  -1   0   1  920.62   39.27
   1   0   1  822.34   39.30
  -1   0   1  774.69   39.30
  -1   0   1  915.30   39.43
  -1   0  -2  216.54   10.86
  -1   0   2  233.92   10.40
  -1   0  -2  218.73   10.39
   1   0   2  222.69   11.65
  -1   0   2  232.26   10.20
  -1   0  -2  217.71   11.57
  -1   0   2  237.25   10.50
   1   0   2  235.96   10.47
   1   0   2  223.97   10.42
  -1   0   2  244.12   10.95
  -1   0   3   20.54    1.70
   1   0   3   21.93    1.63
   1   0   3   18.99    3.91
   1   0  -3   15.04    2.19
   1   0   3   19.30    1.66
   1   0   3   17.87    3.08
  -1   0   3   22.21    3.33
  -1   0   3   21.31    3.19
  -1   0   3   20.01    1.52
  -1   0  -3   22.96    2.46
  -1   0  -3   18.16    1.38
  -1   0   4   47.35    3.03
   1   0   4   45.86    3.18
   1   0  -4   47.83    3.84
  -1   0  -4   54.24    3.87
  -1   0   4   46.02    3.36
   1   0   4   49.54    3.15
  -1   0   5   82.09    4.33
   1   0   5   87.76    5.10
   1   0   5   91.57    5.64
  -1   0   5   82.79    5.33
   1   0   5   86.23    4.32
  -1   0   5   81.61    5.04
   1   0   5   85.33    4.23
  -1   0  -5   97.89    6.06
   1   0   5   86.00    4.35
  -1   0   5   84.88    4.35
  -1   0   5   83.95    4.33
  -1   0   5   88.59    4.23
  -1   0   5   89.48    4.25
   1   0   6    1.32    0.79
   1   0   6    1.77    0.96
   1   0   6   -0.89    1.25
   1   0   6    0.08    2.10
  -1   0   6    0.32    0.72
  -1   0   6   -1.21    1.66
   1   0   6    1.03    0.94
  -1   0   6    0.01    0.98
   1   0  -6    0.41    2.14
  -1   0   6    1.86    2.11
  -1   0  -6   -1.68    2.04
  -1   0  -7   51.03    6.20
   1   0   7   57.50    3.13
   1   0  -7   52.55    6.05
   1   0   7   53.60    3.00
   1   0   7   51.18    5.08
   1   0   7   56.65    3.22
   1   0   7   55.87    2.98
  -1   0   7   56.20    3.18
  -1   0   7   59.65    3.21
  -1   0   7   49.83    5.13
  -1   0   7   55.15    3.29
  -1   0   7   55.34    3.02
   1   0   8    8.52    1.39
  -1   0   8    7.99    1.18
  -1   0   8    9.29    1.33
   1   0   8    8.36    1.37
   1   0  -8    9.46    1.12
   1   0   8    7.71    1.04
  -1   0  -9   44.20    2.16
   1   0   9   46.46    2.41
  -1   0   9   39.78    2.32
   1   0   9   41.39    2.09
   1   0  -9   43.42    2.14
   2   0   0  913.55   41.02
  -2   0   0  965.02   41.09
  -2   0   0  997.31   41.61
  -2   0   0  882.30   40.95
  -2   0   0  825.04   41.36
   2   0   0  974.28   41.46
  -2   0   1   62.62    3.50
  -2   0  -1   63.49    3.57
   2   0   1   60.21    4.18
   2   0   1   66.71    3.21
  -2   0  -1   64.26    3.43
  -2   0  -1   68.41    4.49
   2   0  -1   70.22    3.54
  -2   0   1   72.57    3.55
  -2   0   1   68.87    3.26
  -2   0  -2  732.76   31.20
  -2   0  -2  704.94   30.98
   2   0   2  667.84   30.81
   2   0  -2  661.91   31.12
   2   0   2  662.33   30.70
   2   0   2  682.35   32.28
  -2   0   2  696.55   30.76
  -2   0   2  710.96   30.88
  -2   0   2  681.40   31.08
  -2   0   3  432.15   20.00
   2   0   3  406.49   22.01
  -2   0   3  430.72   19.82
  -2   0   3  418.70   19.52
  -2   0  -3  455.63   19.90
  -2   0  -3  486.08   20.51
  -2   0  -3  476.46   22.42
   2   0   3  429.38   19.89
   2   0   3  445.01   19.82
  -2   0   3  414.78   20.50
  -2   0   3  418.11   21.09
  -2   0   4  223.98   10.65
   2   0  -4  203.35   10.97
   2   0   4  202.11   10.25
   2   0   4  210.61   10.35
  -2   0  -4  242.48   11.09
  -2   0   5    9.66    1.14
  -2   0   5   11.85    1.84
  -2   0   5   11.50    1.54
  -2   0   5   11.78    1.45
  -2   0  -5   10.45    1.47
   2   0   5   10.89    1.83
  -2   0  -5   10.85    2.33
  -2   0   5   10.54    1.50
   2   0   5    7.01    2.19
   2   0   5   12.13    1.25
   2   0   5   11.79    1.35
  -2   0   5    9.19    1.51
   2   0   5   10.55    1.83
   2   0  -5   18.70    3.47
   2   0   6  267.15   12.40
  -2   0   6  285.00   12.39
  -2   0  -6  301.30   14.47
   2   0  -6  295.00   14.36
  -2   0   6  283.04   12.51
  -2   0  -6  257.65   12.28
  -2   0   6  270.45   12.51
  -2   0   6  264.57   13.41
   2   0   6  263.49   13.32
   2   0   6  257.22   12.35
   2   0   6  257.03   13.53
  -2   0   6  267.11   12.47
   2   0   6  271.16   12.42
  -2   0   7    0.95    0.88
   2   0  -7   -1.56    5.63
  -2   0   7    1.09    1.03
   2   0   7    2.53    1.03
  -2   0   7    1.03    1.08
   2   0   7    1.67    2.54
   2   0   7    1.83    0.71
  -2   0   7   -1.33    2.33
   2   0   7    0.92    0.95
  -2   0   7    0.51    1.14
  -2   0  -7   -0.73    2.76
   2   0  -8  116.78    5.54
   2   0   8  117.01    5.53
  -2   0   8  114.91    5.81
  -2   0   8  121.97    5.79
  -2   0   8  123.46    5.63
   2   0   8  122.05    5.70
  -2   0   8  115.32    5.70
  -2   0  -8  125.56    5.60
  -2   0   9   -0.97    0.61
   2   0   9    0.63    0.53
  -2   0  -9    0.19    0.46
  -2   0   9    0.39    0.42
  -2   0   9    0.19    0.57
  -3   0   0   -0.01    0.57
   3   0   0    1.88    1.35
  -3   0   0    0.51    0.79
   3   0   0    0.07    0.53
  -3   0   0   -0.82    1.59
  -3   0   0    0.01    0.38
  -3   0   1  550.50   27.00
  -3   0   1  609.00   27.16
  -3   0   1  617.95   26.65
   3   0   1  541.13   27.68
  -3   0  -1  605.41   26.71
   3   0  -1  599.01   27.06
  -3   0  -1  624.34   27.15
  -3   0  -1  619.03   28.19
   3   0   1  586.03   26.55
  -3   0   2   75.06    4.44
   3   0   2   73.81    3.93
  -3   0  -2   79.80    7.44
  -3   0  -2   79.14    4.29
   3   0   2   72.61    3.77
   3   0  -2   69.46    4.46
  -3   0   2   73.14    4.07
  -3   0  -2   74.10    4.23
  -3   0   2   76.37    3.88
   3   0   2   69.33    6.22
  -3   0   3  142.57    7.07
  -3   0   3  132.64    6.93
  -3   0  -3  151.09    7.63
  -3   0  -3  154.84   11.10
   3   0   3  136.31    6.94
   3   0   3  137.82   10.58
  -3   0  -3  156.67    7.34
   3   0   3  145.43    7.11
  -3   0   4    0.29    0.81
  -3   0  -4    0.58    0.75
   3   0   4   -0.01    1.05
   3   0   4    0.60    1.26
  -3   0   4    1.12    1.06
   3   0   4   -0.36    0.77
  -3   0   4   -0.65    0.53
  -3   0   4   -0.15    0.85
  -3   0  -4   -0.87    1.44
  -3   0  -4   -1.27    1.29
   3   0   5  169.12    7.79
  -3   0   5  158.05    8.71
  -3   0   5  165.00    8.01
  -3   0  -5  187.08    9.68
  -3   0   5  167.08    7.98
  -3   0   5  171.85    7.99
   3   0   5  172.93    8.64
   3   0   5  166.69    7.87
  -3   0   5  170.36    7.85
   3   0   5  166.43    8.81
   3   0  -5  182.91   10.04
  -3   0  -5  165.90    7.82
  -3   0   6   73.46    3.92
  -3   0  -6   71.22    3.62
  -3   0   6   72.49    3.68
   3   0   6   75.49    5.05
   3   0   6   67.69    3.70
  -3   0   6   66.09    5.09
  -3   0   6   69.94    3.93
   3   0   6   71.52    3.57
  -3   0  -6   81.61    6.80
  -3   0   6   71.65    3.94
  -3   0   7  102.23    5.20
   3   0   7  103.77    5.09
  -3   0   7  109.99    5.27
  -3   0   7  107.67    5.33
   3   0   7   91.71    7.16
   3   0   7  104.76    4.91
  -3   0  -7  103.49    4.94
  -3   0  -7   93.46    7.89
  -3   0  -7  101.85    4.92
  -3   0   7  108.42    5.06
  -3   0   8   23.89    1.89
   3   0   8   19.76    1.83
   3   0   8   21.49    1.40
  -3   0  -8   22.95    1.51
  -3   0   8   24.02    1.58
  -3   0   8   23.26    1.82
  -3   0   9   26.12    1.63
  -3   0  -9   23.94    1.33
  -3   0   9   22.50    1.32
  -3   0   9   25.18    1.41
   3   0   9   25.15    1.38
  -4   0   0  879.33   37.03
  -4   0   0  772.53   37.83
   4   0   0  770.81   37.24
   4   0   0  818.54   36.21
   4   0   1   -0.22    0.86
  -4   0   1    0.81    0.84
   4   0  -1   -0.62    0.83
  -4   0  -1   -0.32    1.09
  -4   0  -1   -4.61    3.52
  -4   0   1    1.39    1.09
  -4   0  -1    0.96    0.87
   4   0   1    2.82    3.03
  -4   0  -2  442.70   21.02
   4   0   2  425.90   20.62
  -4   0   2  458.96   20.85
  -4   0   2  459.97   21.22
   4   0  -2  465.96   20.92
   4   0   2  441.41   20.87
  -4   0  -2  505.57   21.42
  -4   0   3    4.22    1.29
  -4   0   3    4.72    1.28
  -4   0  -3    6.58    2.48
  -4   0   3    6.09    1.00
  -4   0  -3    4.53    1.54
   4   0   3    4.60    1.19
  -4   0   3    6.62    1.10
   4   0   3    7.08    1.28
  -4   0  -3    3.94    0.81
  -4   0  -4   42.04    3.82
  -4   0  -4   38.25    2.20
  -4   0   4   38.38    2.21
  -4   0   4   37.60    3.21
  -4   0   4   36.85    2.30
   4   0   4   39.42    2.32
  -4   0   4   38.60    2.61
  -4   0   4   37.85    2.60
  -4   0  -4   43.05    4.49
   4   0   4   41.25    3.25
  -4   0   4   43.88    2.40
  -4   0   5    9.02    2.27
  -4   0   5   15.76    1.43
  -4   0  -5   12.02    2.43
   4   0   5   16.77    2.60
   4   0   5   13.36    1.54
  -4   0   5   13.25    1.69
  -4   0  -5   15.32    1.66
  -4   0   5   15.60    1.63
  -4   0   6   53.79    3.28
  -4   0   6   51.84    2.98
   4   0   6   51.48    4.76
  -4   0  -6   56.28    5.83
   4   0   6   54.95    3.01
  -4   0   6   52.02    3.21
  -4   0  -6   53.99    2.95
  -4   0   6   58.68    4.92
   4   0   6   54.35    2.82
  -4   0  -6   52.27    2.82
  -4   0   6   54.81    3.21
  -4   0   7    5.88    1.24
  -4   0  -7    6.91    0.88
  -4   0   7    3.53    1.15
  -4   0   7    7.31    1.26
   4   0   7    4.75    0.96
  -4   0   7    7.58    1.04
  -4   0  -8   27.87    1.62
  -4   0   8   28.93    1.65
   4   0   8   26.51    1.76
   4   0   8   25.52    1.59
  -4   0   8   30.56    1.93
   4   0   9    1.63    0.51
  -4   0   9    1.93    0.52
  -4   0  -9    2.07    0.32
   5   0   0   -0.58    1.08
  -5   0   0    1.52    1.50
   5   0   1  634.75   30.03
  -5   0  -1  731.62   31.07
  -5   0   1  666.90   30.96
  -5   0   1  660.98   30.23
   5   0  -1  644.36   30.18
  -5   0  -2  101.48    5.64
   5   0   2   79.46    4.82
  -5   0   2   88.21    4.19
  -5   0   2   90.54    5.57
   5   0  -2   87.25    5.02
   5   0   2   93.75    5.03
  -5   0  -2   86.33    4.29
  -5   0   2   84.44    4.91
  -5   0  -2   87.79    4.25
  -5   0   2   89.82    4.32
  -5   0   2   77.16    4.32
  -5   0  -2   83.25    4.24
  -5   0  -3  311.81   14.10
  -5   0  -3  301.71   15.13
  -5   0   3  307.84   14.24
  -5   0   3  306.84   14.86
  -5   0  -3  349.08   15.48
  -5   0  -3  326.36   14.13
  -5   0  -3  303.50   14.13
   5   0   3  325.63   14.95
  -5   0   3  285.06   14.96
  -5   0   3  313.70   14.19
   5   0  -3  314.95   15.04
  -5   0   3  307.11   14.14
  -5   0   3  316.07   14.11
   5   0  -4    2.45    1.70
  -5   0   4    1.72    1.78
  -5   0   4    3.63    1.51
  -5   0   4    2.24    1.72
  -5   0  -4    1.11    2.28
   5   0   4    2.37    1.62
  -5   0   4    2.44    1.10
   5   0   4    1.34    0.86
  -5   0  -4    0.79    0.96
  -5   0  -4    3.01    2.13
  -5   0  -4    1.63    1.08
  -5   0  -5   10.41    1.25
  -5   0   5   12.62    1.73
  -5   0   5   10.78    1.71
  -5   0   5   10.85    2.25
  -5   0   5   12.58    1.49
  -5   0   5   11.98    1.68
  -5   0  -5   10.78    1.54
   5   0   5    9.08    2.07
   5   0  -5    5.01    2.25
   5   0   5   11.27    1.43
  -5   0   5   10.60    1.74
   5   0   6    2.82    2.53
   5   0  -6   -5.68    2.87
  -5   0   6    0.83    1.11
   5   0   6    0.99    0.87
  -5   0  -6   -3.81    3.88
   5   0   6    1.80    0.62
  -5   0   6    2.36    2.93
  -5   0  -6   -0.70    0.69
  -5   0   6    0.49    0.99
  -5   0   6    0.00    0.84
  -5   0   6    0.19    1.14
  -5   0  -6   -0.08    0.81
  -5   0   7   84.02    4.30
   5   0   7   84.21    4.05
   5   0   7   78.52    3.89
  -5   0   7   86.53    4.11
  -5   0  -7   82.93    3.99
  -5   0  -7   80.52    3.94
  -5   0   8    1.30    0.52
   5   0   8    2.02    0.55
  -5   0  -8    0.84    0.49
  -5   0  -8    2.13    0.54
  -5   0   8    1.67    0.64
  -5   0   8    0.99    0.67
  -6   0   0   21.58    1.81
  -6   0   0   21.44    1.78
   6   0   0   21.82    3.37
  -6   0   0   21.04    1.57
  -6   0   0   26.13    3.66
  -6   0   0   23.30    1.70
  -6   0  -1   35.67    2.27
   6   0   1   38.82    3.30
  -6   0   1   35.07    4.42
  -6   0   1   30.74    2.21
  -6   0  -1   30.23    2.18
  -6   0   1   29.98    2.14
  -6   0  -1   34.18    2.12
  -6   0   1   34.69    2.05
  -6   0  -1   35.75    2.20
  -6   0   1   33.29    2.14
  -6   0  -1   34.90    4.23
  -6   0  -1   37.26    2.21
   6   0  -1   35.69    3.57
   6   0  -2  187.71   10.04
  -6   0  -2  207.28    9.06
  -6   0   2  182.98    9.08
  -6   0   2  193.72    9.05
  -6   0  -2  211.26   10.87
  -6   0   2  198.04   10.70
  -6   0  -2  205.10    9.10
  -6   0  -2  193.70    9.08
  -6   0   2  197.07    9.13
  -6   0  -2  195.12    9.03
   6   0   2  202.81   10.03
  -6   0   2  185.83    9.91
  -6   0   2  200.99    9.03
  -6   0   2  192.05    9.14
  -6   0   3   52.18    4.33
  -6   0   3   56.86    3.21
  -6   0   3   57.90    3.05
  -6   0   3   57.31    3.22
  -6   0   3   55.54    3.21
  -6   0  -3   60.68    3.06
   6   0   3   59.47    4.46
   6   0  -3   53.91    4.78
  -6   0  -3   55.89    3.28
  -6   0  -3   60.13    3.06
  -6   0  -3   53.40    3.12
  -6   0   3   53.64    5.01
  -6   0  -4   18.40    1.68
   6   0   4   18.32    1.65
   6   0   4   25.56    3.43
   6   0  -4   15.59    2.69
  -6   0   4   16.88    1.73
  -6   0   4   19.64    2.02
  -6   0   4   16.41    1.97
  -6   0   4   17.42    2.72
  -6   0   4   17.14    1.69
  -6   0  -4   19.48    1.80
  -6   0   5    0.00    0.94
  -6   0  -5   -0.21    0.89
  -6   0   5   -0.44    1.16
   6   0   5    1.00    0.88
   6   0  -5    6.58    2.92
  -6   0   5    0.83    1.05
  -6   0   5   -1.00    0.83
   6   0   6   84.90    4.04
  -6   0   6   79.33    4.32
  -6   0  -6   86.39    4.06
  -6   0   6   83.67    4.09
  -6   0   6   81.80    4.22
   6   0   6   79.79    3.88
  -6   0  -6   77.78    3.89
  -6   0   7    1.68    0.66
  -6   0  -7    2.09    0.58
  -6   0   7    0.69    0.73
   6   0   7    2.14    0.59
  -6   0   7    1.29    0.81
   6   0   7    2.35    0.43
  -6   0   8   15.84    1.04
  -6   0   8   17.17    1.10
  -6   0   8   15.71    1.03
  -7   0   0   -0.25    0.97
  -7   0   0    0.16    0.98
  -7   0   0    3.57    2.61
  -7   0   0    0.54    0.80
  -7   0   0    0.13    1.04
  -7   0  -1   92.96    4.64
  -7   0  -1   90.90    4.67
  -7   0   1  101.54    7.32
  -7   0  -1   92.79    4.70
  -7   0  -1  103.34    7.06
  -7   0  -1   96.78    4.73
   7   0   1   95.98    6.06
  -7   0   1   88.49    4.60
  -7   0   1   88.95    4.80
  -7   0   1   96.32    4.73
  -7   0   1   88.90    4.75
  -7   0   2   17.60    1.97
   7   0  -2   16.57    3.68
   7   0   2   22.48    3.64
  -7   0  -2   18.33    1.69
  -7   0  -2   16.84    1.77
  -7   0  -2   16.35    3.36
  -7   0  -2   16.73    1.86
  -7   0   2   18.46    1.71
  -7   0   2   17.89    1.69
  -7   0  -2   19.38    1.75
  -7   0   2   19.04    1.85
  -7   0   3   74.72    3.71
  -7   0   3   70.39    3.70
   7   0   3   69.64    3.71
  -7   0  -3   70.25    3.78
  -7   0   3   73.56    3.94
  -7   0  -3   72.96    3.66
   7   0  -3   67.75    6.14
  -7   0  -3   73.23    3.71
  -7   0   3   66.81    3.71
   7   0   3   63.94    5.43
  -7   0   3   68.64    3.90
  -7   0  -3   78.57    6.67
  -7   0  -3   74.85    3.74
  -7   0   4    2.63    1.16
  -7   0   4    1.89    0.92
   7   0   4   -3.38    2.62
   7   0  -4    2.65    3.37
  -7   0  -4    1.54    0.85
  -7   0  -4    1.36    0.96
   7   0   4    2.24    0.89
  -7   0  -4    3.40    4.56
  -7   0   4    1.50    1.13
  -7   0   4    1.51    0.91
  -7   0  -5  112.81    5.27
  -7   0   5  106.42    5.25
  -7   0   5  102.83    5.26
  -7   0   5  121.62    5.43
   7   0   5  103.81    5.18
  -7   0   6   -0.63    0.58
   7   0   6    0.98    0.44
  -7   0  -6   -0.04    0.65
   7   0   6    0.69    0.60
  -7   0   6    0.34    0.93
  -7   0   6   -0.74    0.68
  -7   0   7   34.99    1.85
   7   0   7   32.10    1.77
  -7   0  -7   35.26    1.77
  -7   0   7   37.74    1.83
  -8   0   0   55.71    3.39
  -8   0   0   59.02    3.36
  -8   0   0   57.40    3.22
  -8   0   0   60.85    6.73
  -8   0   0   60.87    3.30
  -8   0  -1   19.85    3.91
   8   0   1   17.42    3.28
  -8   0   1   15.60    3.75
  -8   0   1   20.68    1.86
  -8   0  -1   25.51    1.95
  -8   0   1   23.24    1.87
  -8   0   1   21.60    2.15
  -8   0  -1   20.86    1.76
  -8   0   1   21.36    2.13
  -8   0  -1   21.01    1.88
  -8   0  -1   20.28    2.02
  -8   0   2   40.25    2.76
  -8   0   2   39.49    2.50
  -8   0  -2   38.23    2.54
  -8   0  -2   43.34    2.58
  -8   0   2   40.84    2.53
  -8   0  -2   41.11    2.43
  -8   0  -2   41.74    6.28
  -8   0   2   40.84    2.80
  -8   0  -2   44.65    2.50
  -8   0   2   45.64    7.69
  -8   0  -3   24.19    2.00
  -8   0  -3   21.23    1.81
  -8   0   3   21.47    1.76
  -8   0  -3   21.20    1.80
   8   0   3   21.23    1.72
  -8   0   3   23.97    2.12
  -8   0   3   23.76    2.03
   8   0   4   35.66    2.15
  -8   0   4   38.49    2.48
  -8   0   4   37.14    2.43
  -8   0   4   37.38    2.22
  -8   0  -4   38.56    2.25
  -8   0  -4   37.81    2.17
   8   0   5    0.66    0.40
  -8   0  -5    0.36    0.60
   8   0   5   -0.07    0.52
  -8   0   5   -0.92    0.60
  -8   0   5    0.30    0.74
  -8   0   5    0.92    0.79
  -8   0  -6   16.98    1.52
   8   0   6   17.75    1.11
  -8   0   6   23.22    1.70
  -8   0   6   19.18    1.18
  -9   0   0    0.86    0.83
  -9   0   0   -1.02    0.86
  -9   0   0   -0.53    0.73
  -9   0   1   65.37    3.39
  -9   0   1   66.50    3.40
  -9   0  -1   60.94    3.28
  -9   0  -1   64.89    3.39
  -9   0  -1   68.24    3.41
  -9   0   1   66.76    3.50
  -9   0  -2    1.20    0.75
  -9   0  -2    2.35    0.74
  -9   0   2    2.11    1.06
  -9   0   2    1.57    0.87
  -9   0   2    2.74    0.83
  -9   0   2    3.41    0.82
  -9   0  -2    2.83    0.70
  -9   0  -2    2.05    0.78
   9   0   2    2.17    0.73
  -9   0  -3   33.42    1.94
   9   0   3   35.98    1.97
  -9   0  -3   35.59    2.13
  -9   0   3   37.27    2.16
  -9   0   3   32.00    2.23
  -9   0   3   34.31    2.00
  -9   0  -4    0.06    0.48
   9   0   4    0.18    0.50
  -9   0   4   -0.37    0.70
  -9   0   4   -0.54    0.59
  -9   0   4    0.64    0.54
  -9   0  -4    0.25    0.53
  -9   0   5   12.56    1.01
  -9   0  -5   12.48    0.85
  -9   0   5   12.61    0.90
 -10   0   0   42.96    2.30
 -10   0   0   42.31    2.18
 -10   0   0   44.07    2.24
 -10   0   1    0.43    0.48
 -10   0  -1    1.12    1.19
 -10   0   1    0.23    0.68
  10   0   1    0.77    0.51
 -10   0   1    0.25    0.57
 -10   0  -1    0.31    0.51
 -10   0  -1    0.78    0.53
 -10   0   2   10.29    0.95
 -10   0  -2   10.54    0.96
  10   0   2    9.67    0.91
 -10   0   2   11.02    1.04
 -10   0   2    9.17    1.35
  10   0   3    5.56    0.80
 -10   0   3    4.78    0.61
 -10   0   3    4.22    0.63
 -10   0  -3    4.70    0.62
   0  -1   0    0.14    0.10
   0   1   0    0.11    0.17
   0  -1   0   -0.01    0.24
   0   1   0    0.17    0.18
   0   1   1    0.05    0.19
   0   1   1   -0.44    0.52
   0   1   1    0.12    0.31
   0   1  -1    0.40    0.37
   0  -1  -1    0.12    0.22
   0  -1   1   -0.15    0.27
   0  -1   1    0.13    0.24
   0  -1   1    0.67    0.71
   0  -1  -1    0.05    0.59
   0   1  -1    0.52    0.89
   0  -1  -2   -0.37    0.37
   0   1  -2    0.02    0.80
   0  -1   2   -0.10    0.58
   0  -1   2   -0.10    0.34
   0  -1   2   -0.37    1.26
   0   1   2    0.25    0.37
   0   1   2    0.73    0.59
   0  -1   2    0.15    0.41
   0   1   2   -0.42    1.31
   0  -1  -2   -0.80    1.38
   0   1   3   91.29    4.56
   0  -1   3   81.89    6.49
   0  -1   3   90.00    4.58
   0  -1   3   85.39    4.42
   0   1  -3   88.55    4.98
   0   1   3   83.27    4.30
   0  -1   3   91.81    6.30
   0   1   3   81.95    5.91
   0   1   3   87.57    6.26
   0  -1   4    1.41    1.20
   0   1   4    0.20    0.82
   0  -1  -4    1.27    1.28
   0   1  -4   -0.58    1.27
   0   1   4   -0.08    1.03
   0  -1   4   -0.25    0.82
   0  -1   4    1.25    4.77
   0   1  -5   53.41    4.22
   0   1   5   44.93    3.62
   0  -1   5   39.80    2.65
   0  -1   5   39.35    3.72
   0   1   5   42.68    2.49
   0  -1   5   45.15    2.37
   0  -1   5   42.79    3.28
   0   1   5   40.81    3.18
   0   1   5   44.43    2.37
   0  -1   5   41.11    2.50
   0   1   5   41.60    2.48
   0   1   5   41.71    2.50
   0  -1  -5   40.36    4.30
   0   1   6    0.47    1.81
   0  -1   6   -0.14    1.85
   0  -1   6   -0.49    0.98
   0  -1   6    1.34    1.00
   0  -1   6   -1.08    0.80
   0   1   6   -0.86    1.15
   0   1   6   -1.75    1.68
   0  -1  -6    2.02    2.25
   0   1   6   -0.16    0.80
   0   1   6   -0.24    0.87
   0   1   6    0.03    0.71
   0   1  -6   -0.13    2.10
   0   1   6    0.60    0.79
   0  -1   6   -0.09    0.96
   0   1   7    0.00    0.93
   0  -1   7   -1.43    2.20
   0  -1   7    1.44    0.86
   0   1   7    1.09    1.08
   0  -1   7    1.02    1.09
   0   1   7    2.55    2.73
   0   1  -7    4.88    2.70
   0   1   7    1.72    2.61
   0   1   7   -0.80    0.81
   0   1   7    0.74    0.75
   0  -1   7    1.40    0.84
   0  -1  -7    1.73    3.00
   0  -1   7    1.14    1.05
   0   1   8    0.08    1.26
   0   1   8    0.34    0.75
   0  -1   8    1.66    0.85
   0  -1   8    0.85    1.34
   0   1   8    1.54    0.61
   0  -1   8    1.02    0.88
   0   1  -9    6.38    0.79
   0  -1   9    5.53    0.96
   0   1   9    5.91    1.03
   0  -1  -9    5.85    0.80
   0  -1   9    6.15    0.81
   0   1   9    6.48    0.93
   1   1   0    0.44    0.47
  -1  -1   0    0.34    0.19
   1  -1   0   -0.05    0.44
   1   1   0    0.08    0.25
   1   1   0    0.19    0.30
  -1   1   0    0.10    0.25
  -1  -1   0   -0.29    0.38
  -1  -1   0   -0.04    0.40
  -1   1   0   -0.07    0.17
  -1   1   0    0.04    0.29
   1  -1   0    0.24    0.47
   1   1  -1    7.95    1.19
   1  -1   1    8.95    0.63
  -1   1   1    9.20    0.64
   1  -1   1    7.86    0.80
  -1  -1  -1    9.25    1.54
  -1   1   1    8.36    0.70
   1  -1   1    7.68    1.52
  -1   1   1    8.55    0.75
   1   1  -1    8.74    0.80
   1  -1   1    6.23    1.39
  -1   1   1    8.70    0.78
  -1  -1  -1    6.60    0.96
  -1  -1   1   10.89    1.30
   1   1   1    9.17    0.86
   1   1   1    8.58    0.67
  -1  -1   1    8.35    0.90
  -1   1  -1    8.38    0.82
  -1  -1   1    8.67    0.65
   1   1   1    7.78    1.32
  -1   1  -1    9.07    0.91
   1  -1   2  148.53    7.05
   1  -1   2  150.32    8.26
   1   1  -2  165.32    7.79
   1  -1   2  146.82    6.93
  -1  -1  -2  156.57    8.28
   1  -1   2  154.72    8.64
  -1   1   2  153.89    7.06
  -1   1   2  153.66    6.91
  -1   1   2  132.75    7.46
   1   1  -2  136.14    7.25
  -1   1  -2  150.48    6.96
   1   1   2  140.39    8.05
  -1  -1   2  148.26    7.78
   1   1   2  150.90    6.96
  -1   1  -2  143.40    7.35
  -1  -1   2  152.87    7.08
   1   1   2  155.99    7.04
  -1  -1   2  155.84    6.97
  -1   1   3    4.78    2.12
   1  -1   3    8.15    3.10
  -1   1   3    5.78    1.00
  -1  -1  -3    1.04    2.36
   1  -1   3    5.04    0.95
  -1  -1  -3    4.77    0.79
   1  -1   3    2.46    3.66
  -1  -1  -3    3.20    1.33
   1   1  -3    4.52    1.38
   1  -1   3    7.46    1.34
  -1   1   3    4.57    1.00
  -1   1   3    5.18    1.91
  -1  -1   3    4.78    0.83
   1  -1  -3    3.19    1.22
  -1  -1   3    3.08    0.99
  -1  -1   3    7.24    2.38
  -1   1  -3    4.44    0.75
   1   1   3    5.17    0.87
   1   1   3    2.46    2.04
  -1   1  -3    8.55    1.84
   1   1   3    6.15    1.04
   1  -1   4    1.90    5.21
   1  -1   4    5.01    1.15
  -1  -1  -4    6.86    1.83
   1  -1   4    6.50    1.43
  -1   1   4    5.05    1.36
  -1   1   4    5.39    1.07
   1   1  -4    8.11    1.72
  -1  -1   4    6.69    1.60
   1   1   4    8.68    1.42
  -1   1  -4    7.44    1.77
   1   1   4    5.48    1.14
  -1  -1   4    6.63    1.20
   1  -1  -4    3.28    1.70
   1  -1   5    2.79    1.05
  -1   1   5    3.39    1.63
  -1   1   5    1.88    0.82
   1  -1   5    2.14    1.30
  -1   1   5    4.06    0.87
  -1   1   5    5.05    1.39
  -1   1   5    1.37    0.81
  -1   1   5    3.95    0.74
   1  -1   5    2.45    0.97
   1  -1   5    4.48    1.75
   1  -1   5    2.78    0.76
  -1  -1  -5    4.59    1.96
  -1   1   5    2.52    0.98
   1   1  -5    3.26    1.90
   1   1   5    5.07    1.53
   1   1   5    3.38    0.95
  -1  -1   5    2.14    0.96
  -1   1  -5    0.76    1.64
   1   1   5    3.67    0.94
   1   1   5    3.29    0.69
  -1  -1   5    4.40    1.52
  -1  -1   5    1.76    0.76
  -1  -1   5    1.72    0.94
   1  -1  -5    4.43    1.98
  -1  -1   5    3.61    1.07
   1   1   5    3.41    0.93
   1   1   5    1.76    1.39
   1   1   5    3.93    1.13
  -1   1   6   15.46    1.53
   1   1  -6   13.12    2.83
   1  -1   6   16.89    2.05
  -1   1   6   13.46    2.18
   1  -1   6   11.53    2.16
   1  -1   6   15.13    1.79
  -1   1   6   12.93    2.08
   1  -1   6   14.87    1.77
  -1   1   6   14.60    1.52
   1  -1   6   15.20    1.95
  -1  -1  -6   22.06    4.17
  -1   1   6   11.80    1.74
  -1   1   6   15.66    2.64
   1   1   6   21.03    3.06
   1   1   6   18.61    1.56
   1   1   6   15.04    2.33
   1   1   6   15.27    1.67
  -1  -1   6    9.87    2.34
  -1   1  -6   12.18    2.60
  -1  -1   6   14.61    1.81
   1  -1  -6   15.24    2.89
   1   1   6   14.68    1.55
  -1   1   7   -0.57    2.67
   1  -1   7    0.79    0.99
   1  -1   7    0.85    0.88
  -1   1   7    1.28    0.95
   1   1  -7   -1.23    3.37
   1  -1   7    0.70    0.78
   1  -1   7    4.75    2.31
  -1   1   7    0.60    0.79
  -1   1   7    2.05    0.98
  -1   1   7    0.30    1.17
   1   1   7    5.25    2.84
   1  -1  -7   -1.74    2.99
  -1  -1   7    0.79    2.24
  -1  -1   7    1.00    0.98
   1   1   7    0.50    0.78
  -1  -1   7    0.83    0.84
  -1  -1   7   -0.02    1.06
   1   1   7    0.24    0.89
  -1   1  -7    2.26    2.85
  -1  -1   7    0.75    0.99
   1   1   7    1.26    2.76
   1   1   7    1.76    0.75
   1   1   7   -0.29    0.98
   1  -1   8    1.13    0.95
  -1   1   8    1.13    0.85
   1  -1   8    2.29    0.68
  -1   1   8    3.76    0.74
  -1   1   8    2.18    1.55
   1   1  -8    0.81    0.66
   1   1   8    2.25    0.79
  -1  -1   8    2.20    0.74
  -1  -1   8    2.50    1.29
   1   1   8    4.12    0.65
  -1  -1   8    3.55    0.81
   1   1   8    3.15    0.79
  -1  -1   8    0.86    1.31
   1  -1   9    1.79    0.59
   1  -1   9   -0.33    0.39
  -1   1   9    0.61    0.63
  -1  -1  -9   -0.41    0.43
  -1   1   9    0.50    0.53
  -1  -1   9   -1.00    0.60
   1  -1  -9    0.94    0.46
   1   1   9    0.53    0.60
  -1  -1   9   -0.14    0.43
  -1   1  -9   -0.11    0.46
  -2  -1   0  120.50    6.22
  -2   1   0  125.76    5.60
   2  -1   0  122.29    5.96
   2   1   0  120.43    6.14
  -2  -1   0  116.10    5.36
   2   1   0  125.93    5.63
  -2   1   0  106.69    6.08
  -2   1   0  115.33    5.87
  -2  -1   0  126.75    5.58
  -2   1   0  122.35    5.60
   2  -1   1  126.30    6.04
   2   1  -1  130.72    5.98
  -2   1   1  128.59    6.37
  -2   1   1  127.77    6.19
  -2  -1  -1  144.22    7.38
   2  -1   1  136.10    6.29
  -2  -1  -1  116.89    6.40
   2   1  -1  141.08    6.77
  -2   1   1  141.82    6.24
   2  -1   1  133.05    7.35
  -2   1   1  144.79    6.22
  -2   1   1  133.39    6.20
  -2   1  -1  124.87    6.48
  -2   1  -1  136.63    6.39
  -2   1  -1  126.27    7.32
   2  -1  -1  137.88    6.10
   2   1   1  126.96    7.04
   2   1   1  134.65    6.24
  -2  -1   1  144.75    6.80
  -2  -1   1  135.83    6.19
  -2  -1  -2   25.02    1.99
   2  -1   2   25.74    1.65
   2   1  -2   24.16    1.95
  -2   1   2   25.07    1.64
   2  -1   2   26.90    4.13
  -2   1   2   28.00    1.63
   2  -1   2   25.99    1.72
  -2  -1  -2   23.14    2.25
  -2   1   2   26.66    1.82
  -2   1   2   25.15    2.04
   2   1  -2   31.31    2.66
  -2  -1  -2   31.82    4.04
  -2  -1   2   25.68    1.93
   2   1   2   25.74    1.76
  -2  -1   2   27.53    1.72
  -2   1  -2   23.62    1.87
   2   1   2   26.34    3.37
  -2  -1   2   25.65    2.71
   2   1   2   26.99    1.70
  -2   1  -2   25.24    2.15
   2  -1   3  120.79   11.35
   2  -1   3  132.11    6.62
  -2  -1  -3  137.30    7.21
  -2   1   3  134.22    6.68
  -2  -1  -3  140.61    6.63
  -2   1   3  133.06    6.90
  -2   1   3  135.37    6.46
  -2   1   3  133.89    6.23
   2  -1   3  130.94    6.47
  -2  -1  -3  135.77    9.61
   2   1  -3  135.86    6.94
   2  -1   3  134.04    9.53
   2   1  -3  134.03    8.12
  -2   1   3  130.41    7.59
   2   1   3  137.60    6.56
  -2  -1   3  132.41    6.50
  -2  -1   3  124.35    6.27
  -2   1  -3  134.62    6.57
   2   1   3  136.93    6.53
   2   1   3  130.19    9.02
  -2  -1   3  128.67    7.91
  -2   1  -3  145.63    7.14
   2  -1   4    2.39    1.30
  -2  -1  -4    3.60    1.66
  -2  -1  -4    2.77    1.57
   2   1  -4    3.37    1.59
   2  -1   4    1.44    1.04
  -2   1   4    2.16    1.14
  -2   1   4    1.27    0.92
   2  -1  -4    0.12    1.82
   2   1   4    3.34    1.13
  -2   1  -4    1.52    1.87
   2   1   4    3.22    1.15
  -2   1  -4    4.66    1.62
  -2  -1   4    3.74    1.25
   2  -1   5    3.37    1.18
   2   1  -5    5.01    2.17
   2  -1   5    2.17    1.41
  -2   1   5    3.11    0.83
   2  -1   5    0.95    0.80
  -2   1   5    2.14    0.76
  -2   1   5    0.29    0.84
  -2   1   5    4.70    0.94
  -2  -1  -5    4.18    1.88
  -2  -1  -5    2.38    0.79
  -2   1   5    0.48    1.34
   2  -1   5    2.13    0.67
  -2   1   5    2.49    1.66
  -2   1   5    0.93    0.76
   2  -1  -5    0.86    2.22
  -2  -1   5    2.82    0.68
  -2   1  -5    0.77    1.75
   2   1   5    2.84    0.80
   2   1   5    3.12    0.99
   2   1   5    3.65    0.83
   2   1   5    2.17    1.49
   2   1   5    3.31    1.44
   2   1   5    2.56    0.77
   2   1   5    1.11    1.11
  -2   1  -5    2.33    1.04
  -2  -1   5    1.72    0.85
  -2  -1   5    2.75    1.01
  -2  -1   5    3.51    1.06
  -2  -1   5    1.79    1.42
   2  -1   6    1.48    1.85
  -2   1   6   -1.86    1.06
  -2  -1  -6   -0.87    2.14
  -2   1   6    0.36    0.87
  -2   1   6    1.44    1.87
  -2   1   6    1.11    0.98
  -2   1   6    0.93    0.96
   2  -1   6   -0.01    0.76
  -2  -1  -6    0.50    1.21
  -2   1   6    0.58    0.84
   2  -1   6   -1.57    0.94
   2  -1   6    0.25    0.93
  -2  -1   6   -1.04    1.03
   2   1   6    1.11    1.13
  -2  -1   6    0.15    0.73
  -2  -1   6    0.45    1.03
  -2  -1   6    1.00    0.97
  -2   1  -6    1.64    2.17
   2   1   6    1.68    1.99
   2  -1  -6    1.73    2.86
  -2   1  -6   -0.74    0.91
  -2  -1   6   -0.80    1.71
   2   1   6    0.01    0.88
   2   1   6   -0.17    2.02
   2   1   6   -1.24    0.89
   2   1  -7   -8.10    5.70
   2  -1   7    0.65    1.28
  -2   1   7    1.48    1.10
  -2  -1  -7   -0.29    2.74
  -2  -1  -7    1.39    0.85
  -2   1   7   -3.43    2.56
  -2   1   7    0.65    1.05
   2   1  -7    1.42    0.78
  -2   1   7    0.74    1.13
  -2   1   7    1.12    0.86
   2  -1   7    0.72    0.71
   2  -1   7    2.26    2.42
  -2  -1   7    0.74    1.37
   2   1   7    0.70    0.81
  -2  -1   7    0.33    2.47
   2   1   7    1.00    0.90
  -2  -1   7    0.22    1.14
  -2  -1   7    0.05    1.18
   2   1   7   -0.54    1.02
   2  -1  -7    4.59    4.16
  -2   1  -7   -0.18    0.70
  -2   1  -7   -2.05    2.77
   2   1   7   -0.61    0.67
  -2  -1   7    0.85    0.91
   2  -1   8    2.02    0.62
   2  -1   8    0.97    0.80
  -2   1   8    0.95    1.02
  -2   1   8    1.24    0.86
  -2   1   8    2.00    0.93
  -2   1   8    0.66    0.66
   2   1  -8    0.24    0.84
   2   1   8    1.46    0.55
  -2  -1   8    0.58    0.99
  -2   1  -8    1.06    0.70
  -2  -1   8    1.23    0.98
   2   1   8    2.13    0.90
   2   1   8    1.19    0.85
  -2  -1   8    2.21    0.86
  -2   1   9   -0.35    0.56
   2  -1   9    0.32    0.81
  -2   1   9   -0.50    0.51
  -2  -1  -9   -0.18    0.41
   2  -1   9   -0.10    0.37
  -2  -1   9    0.12    0.56
  -2  -1   9   -0.29    0.51
  -2  -1   9   -0.52    0.53
   2   1   9    0.38    0.51
   3   1   0    0.98    1.54
  -3  -1   0    0.65    1.45
  -3   1   0    0.49    0.76
  -3  -1   0   -0.37    0.49
  -3  -1   0   -0.71    0.78
   3  -1   0   -0.04    0.51
   3  -1   0    0.89    1.19
  -3   1   0    1.79    1.74
  -3   1   0    0.41    0.90
   3   1   0    0.00    0.54
  -3   1   1   94.69    4.46
  -3   1   1   83.14    4.32
  -3  -1  -1   83.92    4.65
  -3  -1  -1   93.99    5.02
   3  -1   1   89.28    4.25
  -3   1   1   87.94    4.78
  -3   1   1   82.54    6.14
   3   1  -1   91.99    4.53
   3   1  -1   89.58    5.38
  -3  -1  -1  100.43    6.52
   3  -1   1   86.60    5.93
  -3   1  -1   91.73    4.61
  -3  -1   1   95.61    4.45
  -3  -1   1   83.50    4.88
  -3   1  -1   86.36    4.87
   3   1   1   90.76    4.46
  -3   1  -1   89.53    9.25
  -3  -1   1   91.03    5.45
   3  -1  -1   92.30    4.56
   3   1   1   90.99    5.93
   3  -1   2  113.50    8.57
   3   1  -2  136.57    7.64
  -3  -1  -2  148.06    9.66
   3  -1   2  125.06    6.40
  -3  -1  -2  150.57    7.00
  -3   1   2  141.83    6.60
   3  -1   2  139.10    6.70
   3   1  -2  123.67    6.32
  -3  -1  -2  138.81    6.99
  -3   1   2  135.73    6.73
  -3  -1   2  144.58    7.70
  -3   1  -2  146.37    7.01
  -3  -1   2  139.97    6.59
   3   1   2  134.83    6.57
  -3   1  -2  142.57    9.26
  -3  -1   2  130.06    6.90
   3   1   2  138.90    6.60
  -3   1  -2  131.01    6.91
   3  -1   3   20.57    2.16
  -3  -1  -3   25.55    2.31
   3   1  -3   23.03    2.45
  -3   1   3   24.63    2.03
   3  -1   3   18.50    5.06
   3  -1   3   24.86    2.12
  -3  -1  -3   29.31    2.87
  -3  -1  -3   20.94    6.09
  -3   1   3   24.74    1.88
   3   1   3   23.97    1.98
  -3  -1   3   21.74    2.06
  -3  -1   3   21.32    1.87
  -3   1  -3   26.07    2.31
  -3   1  -3   24.45    2.75
   3   1   3   20.15    2.12
   3   1   3   16.94    4.73
  -3   1   4    4.77    1.21
  -3  -1  -4    4.58    0.90
  -3   1   4    3.01    0.89
   3   1  -4    1.87    2.02
  -3   1   4    4.59    0.85
  -3  -1  -4    5.20    1.74
  -3   1   4    3.21    1.24
  -3  -1  -4    4.25    1.40
   3  -1   4    4.42    1.35
  -3  -1   4    2.54    0.65
   3   1   4    5.74    0.90
  -3   1  -4    3.10    1.48
   3   1   4    3.06    1.09
  -3  -1   4    3.95    0.85
  -3  -1   4    5.61    1.03
   3  -1  -4    3.58    2.12
  -3   1  -4    5.33    1.79
  -3  -1   4    2.18    1.08
  -3  -1   4    6.44    1.25
   3   1   4    1.84    1.28
  -3   1  -4    4.07    1.01
  -3   1   5    0.51    1.42
  -3   1   5    4.34    0.99
   3  -1   5    2.84    1.52
   3   1  -5    0.00    3.36
  -3  -1  -5    2.94    0.79
   3  -1   5    2.55    0.66
  -3   1   5    1.90    0.97
  -3   1   5    2.69    0.92
  -3  -1  -5    2.49    2.06
  -3   1   5    3.48    0.78
   3  -1   5    2.42    0.82
  -3  -1   5    2.26    0.73
   3   1   5    2.39    0.75
  -3  -1   5    2.87    1.43
  -3  -1   5    3.16    0.93
  -3   1  -5    1.64    2.03
   3   1   5    3.59    0.72
  -3  -1   5    3.06    1.05
   3   1   5    0.08    1.46
   3   1   5   -0.53    1.63
  -3   1  -5    2.00    0.84
  -3  -1   5    3.05    0.99
   3  -1  -5    3.46    2.94
   3  -1   6    2.51    1.99
  -3   1   6    2.16    1.18
  -3   1   6    0.89    0.95
  -3   1   6    3.69    2.12
  -3  -1  -6    1.76    3.28
   3  -1   6    0.39    0.68
  -3   1   6    2.86    1.18
  -3  -1  -6    2.08    0.87
   3  -1   6    1.20    0.99
  -3   1   6    2.55    0.77
   3   1   6    4.04    0.97
   3   1   6    1.59    0.77
  -3   1  -6    1.70    0.87
  -3  -1   6    2.28    1.15
   3  -1  -6   -0.86    3.84
  -3   1  -6    2.70    0.79
  -3  -1   6    1.62    1.14
  -3  -1   6    2.90    0.91
  -3  -1   6    1.45    1.10
   3   1   6    6.22    2.00
  -3  -1  -7    3.35    0.85
  -3   1   7    4.45    1.32
   3  -1   7    6.32    1.09
   3   1  -7    9.74    3.40
  -3   1   7    4.53    0.95
  -3   1   7    5.27    1.26
  -3   1   7    5.09    1.26
  -3  -1  -7    5.49    3.29
  -3   1   7    2.33    3.24
   3  -1   7    3.98    0.84
  -3   1  -7    4.68    0.88
   3   1   7    4.91    1.05
  -3   1  -7    2.51    3.13
  -3   1  -7    4.84    0.91
  -3  -1   7    5.27    1.26
  -3  -1   7    5.90    1.23
  -3  -1   7    4.81    1.03
   3   1   7    4.75    0.80
  -3  -1   7   10.09    3.16
  -3  -1   7    5.04    1.35
   3  -1   8    0.22    0.54
  -3   1   8   -0.17    0.85
  -3   1   8   -0.33    0.87
  -3  -1  -8   -0.04    0.57
  -3   1   8   -1.04    0.87
   3  -1   8   -0.91    0.65
   3   1   8    1.13    0.77
  -3  -1   8   -0.46    0.66
  -3   1  -8    0.47    0.65
  -3  -1   8   -0.39    0.82
  -3  -1   8   -0.48    0.90
  -3   1   9    0.11    0.49
  -3   1   9    0.63    0.58
   3  -1   9    0.19    0.50
  -3  -1  -9    0.80    0.71
   3  -1   9    0.29    0.36
  -3   1  -9    0.19    0.46
  -3  -1   9    0.49    0.49
   3   1   9    0.39    0.55
  -3  -1   9    0.30    0.31
  -3  -1   9    0.84    0.58
  -4   1   0  152.75    8.26
   4  -1   0  159.47    7.45
  -4   1   0  158.98    9.48
   4  -1   0  150.17    8.64
  -4  -1   0  171.98    8.39
  -4  -1   0  169.15    7.60
   4   1   0  161.05    7.60
   4   1   0  148.20    9.01
  -4  -1   0  161.21    9.84
  -4   1   0  147.99    7.41
  -4  -1  -1   39.34    3.06
  -4  -1  -1   27.71    2.28
  -4   1   1   35.41    2.35
  -4   1   1   38.33    5.12
  -4   1   1   32.43    2.83
   4  -1   1   32.94    2.20
   4   1  -1   31.91    2.44
  -4   1   1   31.60    2.15
  -4  -1  -1   49.81    6.74
  -4  -1   1   33.70    2.28
  -4  -1   1   35.87    3.05
   4  -1  -1   32.81    2.36
  -4   1  -1   30.85    2.83
   4  -1  -1   31.66    3.51
  -4   1  -1   30.29    2.38
   4   1   1   31.38    2.37
   4   1   1   34.37    5.42
  -4   1   2    0.94    1.07
   4   1  -2    0.92    1.12
   4  -1   2    1.96    1.13
  -4  -1  -2    0.63    1.10
  -4   1   2    0.58    0.90
  -4  -1  -2    1.26    1.26
  -4  -1  -2    1.01    6.49
   4   1   2    1.48    0.90
   4   1   2    5.18    3.99
  -4  -1   2    1.18    1.30
  -4   1  -2    0.74    1.21
   4   1   2    2.03    0.89
  -4   1  -2    1.02    1.22
  -4  -1   2    2.06    1.14
   4  -1   3    1.39    1.11
  -4  -1  -3    0.03    2.18
   4   1  -3    0.36    1.02
  -4   1   3    1.16    1.14
  -4   1   3    0.07    0.83
  -4  -1  -3   -0.14    1.28
  -4   1   3   -0.08    1.08
  -4  -1  -3    0.36    0.75
  -4   1  -3   -0.22    2.31
  -4   1  -3   -0.20    0.98
   4   1   3   -0.03    1.06
  -4  -1   3    0.26    0.81
  -4  -1   3    1.22    1.27
   4   1   3    0.75    1.06
  -4  -1   3    0.98    0.65
  -4   1  -3    1.24    2.48
  -4  -1   3    1.56    1.29
  -4  -1   3    0.65    0.82
   4  -1   4    6.31    0.95
   4  -1   4    8.94    1.68
  -4   1   4    3.19    1.07
  -4   1   4    4.99    0.98
  -4   1   4    7.25    1.35
  -4   1   4    5.18    0.75
  -4  -1  -4    3.85    1.72
  -4   1   4    7.32    1.21
  -4  -1  -4    6.71    0.95
  -4  -1  -4    4.31    1.90
  -4   1   4    6.93    1.50
   4   1   4    8.94    1.75
  -4  -1   4    7.81    1.75
   4   1   4    5.73    1.42
  -4  -1   4    6.65    0.86
  -4  -1   4    4.69    1.15
  -4  -1   4    6.38    1.17
  -4  -1   4    7.54    1.06
  -4   1  -4    2.45    1.67
  -4  -1   4    4.74    0.98
   4   1   4    4.92    0.90
  -4   1  -4    5.93    0.93
  -4   1  -4    6.99    1.93
  -4   1  -4    6.05    0.86
  -4   1   5    0.49    1.72
  -4  -1  -5    4.79    2.18
  -4   1   5    1.99    1.50
   4  -1   5    0.77    0.99
  -4   1   5    2.07    1.05
   4  -1   5    0.90    1.73
  -4  -1  -5    1.74    0.78
  -4   1   5    2.92    0.83
  -4   1   5    1.61    1.02
   4   1   5    2.89    0.76
  -4   1  -5    2.27    2.07
   4   1   5    4.79    1.83
  -4  -1   5    1.23    1.70
  -4  -1   5    1.08    1.06
  -4  -1   5    1.70    0.99
  -4  -1   5    1.39    1.04
  -4  -1   5    1.65    0.84
  -4  -1   5   -0.85    1.78
  -4   1  -5    1.64    0.74
   4   1   5    1.93    0.76
  -4   1  -5    1.79    0.82
   4  -1   6    3.54    2.08
  -4   1   6    1.13    1.06
   4  -1   6    1.46    0.74
   4  -1   6    0.29    0.86
  -4   1   6    0.84    1.21
   4   1  -6    1.03    2.48
  -4   1   6    2.56    0.92
  -4  -1  -6    0.80    0.83
  -4  -1  -6   -0.34    2.71
  -4   1   6    2.65    1.17
  -4   1   6    0.51    2.47
   4   1   6   -1.32    2.37
  -4   1  -6    2.58    0.87
   4   1   6    0.43    0.63
   4   1   6    2.19    0.96
  -4  -1   6    1.06    1.23
  -4   1  -6   -1.05    2.65
  -4  -1   6    1.36    1.16
  -4  -1   6    1.24    1.07
  -4  -1   6    2.18    0.96
  -4   1  -6    2.57    0.75
  -4   1   7    1.39    1.07
   4  -1   7    0.86    1.17
  -4   1   7    0.61    0.99
  -4  -1  -7    0.25    0.67
   4  -1   7    0.07    0.75
  -4   1   7   -1.05    1.05
   4   1   7   -0.20    0.56
  -4  -1   7    0.08    0.82
  -4  -1   7   -0.31    0.97
  -4   1  -7   -0.09    0.65
   4   1   7    0.62    0.89
  -4  -1   7   -2.33    1.07
  -4   1   8    1.06    1.04
  -4   1   8    2.20    0.58
   4  -1   8   -0.46    0.58
  -4   1   8    0.54    0.75
  -4   1   8    2.07    1.04
   4  -1   8    0.79    0.45
  -4  -1  -8    1.99    0.62
  -4  -1  -8    0.74    0.55
   4   1   8    0.11    0.59
  -4  -1   8    0.92    0.74
  -4  -1   8   -0.24    0.76
  -4  -1   8   -0.10    0.62
  -4   1  -8    1.51    0.50
   5  -1   0   -0.85    1.17
   5   1   0   -0.69    1.19
  -5   1   0    0.03    1.54
  -5  -1   0    1.41    1.56
  -5   1   1    4.89    1.70
  -5  -1  -1    6.34    1.73
  -5   1   1    5.46    0.84
   5   1  -1    6.32    1.33
  -5   1   1    4.42    1.18
  -5  -1  -1    5.97    1.19
   5  -1   1    4.93    1.25
  -5   1   1    3.35    0.89
  -5  -1  -1    5.21    1.21
  -5   1  -1    4.44    1.68
   5  -1  -1    4.84    1.39
  -5  -1   1    6.59    1.84
  -5   1  -1    4.22    0.85
   5   1   1    4.55    1.32
  -5  -1   1    3.86    1.38
  -5  -1   1    3.58    0.91
  -5  -1   1    4.55    1.02
  -5   1  -1    3.51    0.94
  -5  -1  -2    7.52    1.83
  -5   1   2    4.77    0.91
  -5   1   2    7.17    1.76
  -5   1   2    7.46    1.19
  -5   1   2    8.61    1.04
  -5  -1  -2    7.74    1.25
   5   1  -2    7.05    1.74
  -5  -1  -2    7.47    0.93
   5  -1   2    6.55    1.63
  -5   1   2    7.00    1.51
  -5  -1  -2    8.47    1.12
  -5   1  -2    6.32    0.97
  -5   1  -2    7.52    1.18
  -5  -1   2    8.04    1.07
  -5   1  -2    6.90    1.76
   5   1   2    8.76    1.54
  -5   1  -2    8.02    1.88
  -5  -1   2   10.07    1.23
   5  -1  -2    8.77    2.08
   5   1   2    6.64    1.56
  -5   1  -2    7.47    1.02
  -5  -1   2    5.10    1.32
  -5  -1   2    9.17    2.03
  -5   1  -2    8.64    1.15
  -5  -1   2   11.28    1.33
  -5  -1   2    6.89    1.02
  -5  -1  -3    2.00    2.19
  -5   1   3    7.04    1.09
  -5  -1  -3    6.83    0.97
  -5   1   3    6.34    1.72
  -5   1   3    4.89    0.78
  -5   1   3    6.98    1.01
  -5   1   3    6.68    1.06
  -5  -1  -3    5.17    0.94
   5   1  -3    7.22    1.60
  -5   1   3    5.92    1.52
  -5  -1  -3    5.45    1.99
  -5  -1  -3    5.61    0.82
   5  -1   3    5.24    1.61
   5   1   3    4.34    1.66
  -5  -1   3    2.98    1.75
  -5   1  -3    7.48    1.99
  -5   1  -3    6.38    0.96
  -5  -1   3    4.77    0.93
   5  -1  -3    3.33    1.57
  -5  -1   3    5.06    1.48
  -5   1  -3    6.25    0.87
  -5   1  -3    4.93    2.58
  -5   1  -3    5.14    1.18
  -5  -1   3    5.29    1.01
  -5  -1   3    5.26    0.82
  -5   1  -3    7.53    1.32
   5   1   3    6.44    1.38
  -5   1   4    1.35    1.62
   5  -1   4    7.53    1.26
  -5   1   4    7.07    1.65
  -5  -1  -4    5.39    1.15
  -5   1   4    7.01    1.26
  -5  -1  -4    3.80    2.34
   5  -1   4    5.91    1.94
  -5  -1  -4    8.28    2.22
   5   1  -4    1.36    2.10
  -5  -1  -4    7.65    1.12
  -5   1  -4    4.09    0.76
  -5  -1   4    4.49    0.91
  -5   1  -4    5.53    1.08
  -5  -1   4    5.73    1.76
  -5   1  -4    2.18    2.26
  -5  -1   4    6.23    1.11
  -5  -1   4    4.77    1.61
   5   1   4    6.60    1.73
  -5   1  -4    5.85    1.17
  -5   1  -4    5.97    2.34
  -5  -1   4    4.95    1.08
  -5  -1  -5   10.04    4.09
  -5   1   5    3.14    2.00
   5  -1   5    2.51    0.84
  -5   1   5    2.85    0.91
  -5   1   5    3.75    1.02
  -5  -1  -5    2.93    0.95
  -5   1   5    2.21    1.10
  -5  -1  -5    2.76    0.74
   5   1  -5    4.67    2.39
  -5   1   5    4.74    1.09
   5  -1   5    5.00    2.10
   5   1   5    3.21    0.97
  -5  -1   5    2.37    2.21
  -5  -1   5    1.97    1.06
  -5  -1   5    4.14    1.18
   5   1   5    6.57    2.13
  -5  -1   5    3.71    1.11
  -5   1  -5    2.72    0.75
  -5  -1   5    3.25    0.99
  -5  -1   5    3.62    1.20
  -5   1  -5    3.17    0.98
  -5   1  -5    3.91    2.90
  -5  -1  -6    1.60    0.72
  -5   1   6    2.82    1.04
  -5   1   6    0.65    2.80
  -5  -1  -6    0.02    0.81
  -5   1   6    1.17    0.86
  -5   1   6    2.50    1.11
   5  -1   6    1.66    0.64
   5  -1   6   -1.89    2.63
  -5   1   6    1.88    1.04
   5  -1   6    0.48    0.84
   5   1  -6   -2.71    3.03
   5   1   6    1.96    0.58
  -5   1  -6    1.15    0.87
  -5  -1   6    0.23    1.14
   5  -1  -6   -4.56    2.59
  -5  -1   6    0.59    0.93
   5   1   6    0.32    0.83
  -5   1  -6    7.60    5.59
  -5   1  -6    0.93    0.63
  -5  -1   6    1.32    1.16
  -5   1   7    1.06    0.68
  -5   1   7    0.38    0.82
   5  -1   7    2.20    0.77
  -5  -1  -7    1.21    0.67
  -5   1   7    1.43    0.95
   5  -1   7    0.98    0.51
  -5  -1  -7    1.59    0.59
  -5   1   7    1.39    0.92
   5   1   7    2.04    0.62
  -5  -1   7   -0.13    0.96
  -5   1  -7    1.03    0.66
   5   1   7    0.61    0.71
  -5  -1   7    1.55    0.84
  -5  -1   7    2.33    1.14
  -5   1  -7    0.36    0.54
   5  -1   8   -0.24    0.37
  -5   1   8   -0.64    0.48
  -5   1   8    0.85    0.69
  -5   1   8    0.07    0.61
   5  -1   8    0.09    0.50
  -5  -1  -8    0.10    0.45
  -5  -1  -8    0.11    0.35
  -5  -1   8    0.18    0.48
  -5   1  -8    0.43    0.48
  -5  -1   8    0.40    0.61
   5   1   8    1.12    0.49
  -6   1   0    7.54    1.26
  -6   1   0    8.36    1.39
  -6  -1   0    8.68    1.22
  -6  -1   0    8.59    1.31
  -6  -1   0    7.52    2.46
  -6   1   0    9.52    2.47
  -6  -1   0   11.94    1.46
  -6   1   0    9.95    1.41
  -6   1   0    8.34    1.45
  -6   1   0   10.34    1.25
  -6  -1   0    8.76    1.48
   6   1   0    8.06    1.95
  -6  -1  -1   20.73    3.55
  -6   1   1   11.57    1.48
   6  -1   1   17.91    2.69
  -6  -1  -1   14.51    1.74
  -6  -1  -1   13.38    1.49
   6   1  -1   15.65    2.34
  -6   1   1   14.59    1.40
  -6   1   1   14.38    1.46
  -6  -1  -1   15.32    1.71
  -6  -1  -1   15.86    1.52
  -6   1   1   13.69    1.61
  -6  -1  -1   12.83    1.57
  -6   1   1   17.48    2.99
   6   1   1   12.11    2.23
   6  -1  -1   12.71    3.60
  -6  -1   1   13.28    1.52
  -6  -1   1   16.51    3.11
   6   1   1   15.42    2.65
  -6   1  -1   16.59    1.59
  -6  -1   1   16.90    1.50
  -6   1  -1   18.83    3.69
  -6   1  -1   17.09    1.64
  -6   1  -1   18.21    1.47
  -6   1  -1   15.67    1.60
  -6   1  -1   14.76    1.56
  -6  -1   1   16.42    1.56
  -6  -1   1   16.61    1.36
   6  -1   2    4.37    1.65
  -6  -1  -2    0.84    0.77
  -6   1   2    2.73    0.98
  -6  -1  -2    0.59    0.84
  -6  -1  -2    1.62    0.87
   6   1  -2    0.88    1.85
  -6   1   2    0.75    0.92
  -6   1   2    3.59    0.95
  -6   1   2    1.20    0.84
  -6   1   2    3.15    1.97
  -6   1   2   -0.58    0.75
  -6  -1  -2    0.58    0.79
  -6  -1  -2    1.73    2.25
   6  -1  -2   -0.53    1.93
  -6  -1   2    1.12    0.86
  -6   1  -2    1.39    0.95
   6   1   2    2.40    1.46
  -6   1  -2    0.81    0.80
  -6  -1   2    0.69    0.81
  -6   1  -2    0.95    2.28
  -6  -1   2    1.02    1.68
  -6   1  -2    0.77    0.81
  -6  -1   2    2.15    2.09
  -6  -1   2    1.53    0.81
  -6  -1   2   -0.74    0.92
  -6  -1   2    1.46    0.82
  -6   1  -2    0.73    0.88
  -6   1   3    0.94    1.81
  -6   1   3    2.37    2.32
  -6  -1  -3    0.92    0.83
   6   1  -3   -1.95    1.88
  -6   1   3   -0.26    0.92
  -6   1   3   -0.81    0.79
  -6  -1  -3   -0.63    0.85
   6  -1   3   -1.63    1.76
  -6  -1  -3    0.75    2.24
  -6  -1  -3    0.18    0.79
  -6   1   3   -0.17    0.97
  -6   1   3    0.43    1.41
  -6   1  -3   -0.83    0.79
  -6  -1   3   -1.23    1.05
  -6  -1   3   -0.20    0.90
  -6   1  -3    0.12    0.90
  -6   1  -3    3.84    2.47
  -6  -1   3   -0.17    2.32
   6  -1  -3   -1.47    2.18
  -6  -1   3   -0.13    1.00
  -6   1  -3   -0.65    0.81
  -6  -1   3   -2.46    1.72
   6   1   3   -0.73    1.73
  -6  -1   3    0.37    0.81
  -6   1   4   -0.09    1.09
  -6  -1  -4    2.47    0.86
  -6   1   4    1.13    0.94
  -6  -1  -4    7.57    3.76
  -6  -1  -4    0.49    0.95
  -6   1   4   -0.27    1.05
  -6   1   4    1.01    0.93
   6  -1   4    2.02    0.87
   6  -1   4    2.47    2.23
   6   1  -4    4.62    2.46
  -6   1   4   -1.09    2.10
   6   1   4    1.00    0.85
  -6  -1   4    0.93    0.95
  -6  -1   4    1.84    0.95
   6   1   4    4.56    2.19
   6  -1  -4    4.57    2.27
  -6  -1   4    1.54    0.99
  -6   1  -4    2.12    0.92
  -6   1  -4    0.64    3.43
  -6  -1   4    1.02    2.00
  -6  -1   4    0.99    1.13
  -6   1  -4    1.30    0.94
   6  -1   5   -0.78    2.38
  -6   1   5   -0.29    0.77
  -6  -1  -5    1.13    0.95
  -6   1   5    0.99    1.06
   6   1  -5   -3.79    2.37
   6  -1   5    0.19    0.77
  -6   1   5    0.13    1.09
  -6   1   5    1.52    0.95
  -6   1   5    1.96    2.53
   6  -1  -5    1.24    2.67
  -6  -1   5    2.43    0.96
  -6   1  -5    0.44    1.01
  -6  -1   5    1.63    1.02
  -6  -1   5    0.66    1.07
  -6  -1   5    3.84    2.68
   6   1   5   -2.00    2.73
   6   1   5    1.21    0.92
  -6   1  -5    0.81    0.73
  -6  -1   5    1.85    1.11
  -6   1   6    1.68    0.98
   6  -1   6    2.16    0.76
   6  -1   6    1.84    0.60
  -6   1   6    2.69    1.03
  -6  -1  -6    2.51    0.85
  -6   1   6    0.28    0.74
   6   1   6    2.04    0.82
  -6  -1   6    1.55    1.00
  -6  -1   6    0.41    0.92
   6   1   6    1.47    0.54
  -6   1  -6    2.66    0.65
  -6  -1   6    1.68    0.91
  -6   1  -6    1.90    0.84
  -6  -1   6    1.33    1.01
  -6   1   7    0.38    0.68
  -6   1   7   -0.23    0.56
   6  -1   7    0.69    0.54
  -6   1   7   -0.32    0.81
   6  -1   7    0.80    0.40
  -6  -1  -7    0.38    0.54
  -6   1  -7   -0.19    0.54
  -6  -1   7    0.62    0.61
  -6   1  -7    0.58    0.63
  -6  -1   7    1.10    0.77
  -6  -1   7   -0.25    0.79
   6   1   7    0.56    0.54
  -7  -1   0   -0.11    0.90
  -7  -1   0    0.56    2.56
  -7   1   0   -0.74    0.85
  -7   1   0   -0.80    2.47
   7  -1   0   -2.48    1.74
  -7   1   0    0.61    0.93
  -7   1   0   -1.11    1.02
  -7   1   0    0.84    0.95
  -7  -1   0   -0.15    1.05
  -7   1   0    0.31    1.00
  -7  -1   0    0.51    0.95
  -7  -1   0    0.18    0.87
  -7   1   1    7.14    2.74
  -7   1   1    3.21    1.05
  -7  -1  -1    3.28    0.99
  -7  -1  -1    3.91    0.89
  -7  -1  -1    5.80    0.97
  -7   1   1    4.81    1.04
   7  -1   1    3.93    1.76
  -7  -1  -1    3.35    2.73
  -7   1   1    4.63    1.08
  -7  -1  -1    4.63    1.12
   7   1  -1    6.11    2.78
  -7   1   1    3.58    0.96
  -7   1  -1    3.77    0.97
  -7  -1   1    4.53    0.91
  -7  -1   1    5.81    1.29
  -7   1  -1    4.92    1.04
  -7   1  -1    4.74    1.06
   7   1   1    4.85    2.07
  -7   1  -1    3.40    0.92
  -7  -1   1    9.27    2.91
  -7  -1   1    4.06    1.06
  -7   1  -1    6.61    2.75
  -7  -1   1    3.23    1.04
  -7   1   2   -0.89    4.08
  -7  -1  -2    4.98    1.04
  -7   1   2    4.62    1.04
  -7   1   2    5.01    1.29
  -7  -1  -2    5.35    1.09
  -7  -1  -2    5.50    0.97
  -7  -1  -2    3.04    0.87
  -7  -1  -2    4.46    2.77
   7  -1   2    3.23    2.10
  -7   1   2    3.08    0.93
  -7   1   2    4.59    1.05
   7   1   2    4.92    2.06
  -7   1  -2    3.82    1.03
  -7  -1   2    4.23    1.14
  -7   1  -2    7.97    2.88
  -7   1  -2    4.01    0.92
  -7   1  -2    3.39    1.01
  -7  -1   2    3.91    0.98
  -7   1  -2    3.62    0.97
  -7  -1   2    5.32    1.08
  -7  -1   2    4.18    1.17
  -7   1   3   -0.33    1.04
  -7   1   3    0.91    0.84
  -7  -1  -3   -4.31    3.20
  -7   1   3    0.90    0.84
  -7   1   3   -0.30    0.83
  -7  -1  -3    1.28    0.80
   7   1  -3   -1.48    2.74
  -7  -1  -3    2.23    0.92
  -7  -1  -3    1.99    0.97
   7  -1   3   -0.47    2.48
  -7   1   3    0.12    1.10
   7  -1   3    0.83    0.92
  -7  -1   3    1.79    1.16
   7  -1  -3    2.71    3.34
  -7  -1   3    0.99    0.85
  -7  -1   3   -0.60    2.15
  -7  -1   3    0.82    0.93
  -7  -1   3    0.20    0.92
  -7   1  -3    0.87    0.88
  -7   1  -3    8.54    3.21
  -7   1  -3    0.42    0.97
  -7  -1   3    1.75    0.98
   7   1   3   -2.97    2.60
  -7   1  -3    1.94    0.89
   7   1   3    1.16    0.89
  -7   1  -3    0.96    0.95
  -7   1   4    0.34    1.07
  -7   1   4    1.28    0.86
  -7  -1  -4    2.98    0.86
   7  -1   4    2.15    0.90
  -7   1   4    0.47    0.80
  -7  -1  -4    7.46    6.04
  -7   1   4    1.87    1.22
  -7  -1  -4    3.63    0.89
   7   1  -4   -3.31    3.10
  -7  -1   4    3.38    2.77
   7   1   4   -0.90    3.05
  -7  -1   4    1.59    1.12
   7   1   4    1.60    0.88
  -7   1  -4   -0.21    5.18
  -7  -1   4    2.00    0.93
  -7   1  -4    3.00    0.95
  -7  -1   4    1.80    0.97
  -7  -1   4    3.07    1.17
   7  -1  -4    2.37    3.90
  -7   1  -4    2.95    0.88
  -7  -1  -5    4.48    0.94
  -7   1   5    4.12    0.82
   7  -1   5    4.67    0.82
  -7   1   5    3.86    1.11
  -7   1   5    4.93    0.92
  -7   1   5    4.58    1.05
  -7  -1   5    3.28    1.13
  -7   1  -5    2.97    0.97
  -7  -1   5    4.51    0.95
  -7  -1   5    3.41    0.89
   7   1   5    6.57    0.83
  -7  -1   5    3.26    1.07
   7   1   5    4.28    0.89
  -7   1   6    0.84    0.65
  -7   1   6   -1.08    0.81
  -7  -1  -6   -0.29    0.69
   7  -1   6   -0.09    0.40
   7  -1   6    0.71    0.77
  -7   1   6    1.15    0.69
  -7  -1   6    0.22    0.83
  -7  -1   6    1.89    0.67
  -7   1  -6    1.17    0.73
   7   1   6    0.29    0.54
  -7  -1   6   -1.08    0.86
  -7  -1   6   -0.54    0.68
  -7   1   7    0.95    0.58
  -7  -1  -7    0.77    0.38
  -7   1   7    0.55    0.42
  -7   1   7   -0.07    0.42
   7  -1   7   -0.35    0.42
  -7   1  -7    0.21    0.36
  -7  -1   7    0.18    0.64
   7   1   7    0.43    0.40
  -7  -1   7    0.03    0.38
  -8  -1   0   10.61    1.61
   8   1   0    0.47    2.62
  -8   1   0    6.15    1.10
  -8   1   0    6.57    1.33
  -8   1   0    1.43    3.60
   8  -1   0    6.76    2.66
  -8  -1   0    7.07    1.12
  -8   1   0    5.93    1.08
  -8   1   0    5.12    1.09
  -8  -1   0    4.37    3.75
  -8  -1   0    4.88    1.30
  -8  -1   0    6.88    1.21
  -8  -1  -1    0.84    0.90
  -8   1   1    0.77    0.90
  -8  -1  -1   -0.43    0.91
  -8   1   1   -0.92    1.02
  -8  -1  -1   -0.37    0.99
  -8  -1  -1    0.06    0.82
  -8   1   1    0.13    0.96
  -8   1   1   -0.41    3.79
   8  -1   1    0.04    2.34
  -8   1   1    0.69    1.03
  -8  -1  -1   -2.85    3.14
  -8   1  -1    0.64    0.80
   8  -1  -1   -3.88    2.28
  -8   1  -1   -0.90    0.92
   8   1   1    0.48    2.56
  -8  -1   1   -0.18    0.89
  -8   1  -1   -0.76    0.91
  -8   1  -1   -0.03    0.92
  -8  -1   1    1.28    1.23
  -8  -1   1    2.01    3.70
  -8  -1   1    1.44    1.11
  -8  -1   1    0.41    0.92
  -8   1  -1    1.13    3.28
  -8   1   2    6.29    1.03
  -8  -1  -2    8.98    3.77
  -8  -1  -2    6.35    1.08
  -8   1   2   -3.26    4.57
  -8   1   2    7.08    1.25
  -8  -1  -2   10.43    1.57
  -8   1   2    8.02    1.12
  -8  -1  -2    8.54    1.05
   8  -1   2    5.32    3.25
  -8   1   2    9.87    1.37
  -8  -1  -2    6.77    1.10
  -8   1  -2    7.61    1.07
  -8  -1   2    6.34    1.23
  -8  -1   2    3.48    4.61
  -8   1  -2    9.83    1.53
  -8   1  -2    8.96    1.55
  -8   1  -2    3.68    3.80
  -8   1  -2    5.70    1.00
  -8  -1   2    9.27    1.44
   8   1   2    9.04    3.61
  -8  -1   2    6.96    1.07
  -8  -1   2    7.11    1.37
  -8   1   3   -1.00    1.03
  -8  -1  -3    0.36    1.05
  -8   1   3    2.34    1.13
  -8   1  -3    0.73    0.82
  -8  -1   3    1.63    1.08
   8   1   3   -1.43    0.85
  -8   1  -3    1.04    1.09
  -8   1  -3    1.58    1.11
  -8  -1   3    0.26    0.89
  -8  -1   3    1.10    1.19
  -8  -1  -4    7.16    1.23
  -8   1   4    3.94    1.10
  -8   1   4    4.86    0.84
  -8   1   4    4.00    0.97
  -8  -1  -4    6.86    0.95
   8  -1   4    4.40    0.77
  -8  -1   4    4.57    0.85
  -8  -1   4    5.44    1.24
   8   1   4    4.43    0.87
  -8   1  -4    5.10    0.89
  -8   1  -4    5.27    0.94
  -8  -1   4    6.39    1.11
  -8   1   5   -1.40    0.76
  -8   1   5    0.12    0.72
   8  -1   5    0.51    0.52
   8  -1   5   -0.67    0.40
  -8   1   5   -0.38    0.59
  -8  -1  -5    0.11    0.63
  -8   1  -5   -0.17    0.57
  -8  -1   5   -1.05    0.54
   8   1   5    0.04    0.51
   8   1   5    0.30    0.51
  -8  -1   5    0.54    0.84
   8  -1   6   -0.28    0.23
  -8   1   6    0.62    0.41
  -8  -1  -6   -0.15    0.43
  -8   1  -6   -0.22    0.42
  -8  -1   6    0.03    0.83
   8   1   6    0.20    0.50
  -8  -1   6   -0.70    0.45
  -9  -1   0    0.52    0.84
  -9   1   0    0.29    0.87
  -9  -1   0    0.24    0.68
  -9  -1   0   -0.87    0.81
  -9   1   0   -0.38    0.90
  -9   1   0    0.42    0.71
  -9   1   1    2.47    0.95
  -9   1   1    3.38    0.90
  -9  -1  -1    2.46    0.89
  -9  -1  -1    0.71    0.70
  -9   1   1    1.30    0.80
  -9  -1  -1    1.99    0.84
  -9   1  -1    2.17    0.94
  -9  -1   1    1.50    0.84
  -9   1  -1    3.46    0.94
  -9   1  -1    0.13    0.78
  -9  -1   1    1.65    0.99
  -9  -1   1    1.40    0.77
  -9   1   2    0.98    0.85
  -9   1   2    0.55    0.77
  -9  -1  -2   -0.45    0.77
  -9  -1  -2    1.02    0.76
  -9  -1  -2   -0.18    0.64
   9  -1   2    1.15    0.71
  -9   1   2    0.29    0.75
  -9  -1  -2    1.09    0.66
  -9   1   2    0.71    0.92
  -9   1  -2    1.56    0.74
  -9   1  -2   -0.40    0.63
  -9   1  -2    0.16    0.76
  -9   1  -2    0.84    0.66
  -9  -1   2    0.59    0.69
   9   1   2    0.50    0.72
  -9  -1   2    0.94    0.89
  -9  -1   2   -0.72    1.04
  -9  -1   2    2.17    0.80
   9  -1   3    0.58    0.61
  -9  -1  -3    0.72    0.72
  -9   1   3    0.58    0.85
  -9  -1  -3    0.69    0.59
  -9   1   3   -0.59    0.74
  -9   1   3    0.89    0.63
  -9  -1   3    0.23    0.89
  -9   1  -3    1.48    0.76
  -9   1  -3    0.23    0.61
  -9  -1   3    0.66    0.85
  -9   1  -3    2.30    0.82
  -9  -1   3    2.06    0.71
   9   1   3    1.51    0.66
  -9   1   4   -0.05    0.60
  -9   1   4    0.12    0.67
  -9   1   4    0.47    0.54
  -9  -1  -4   -0.39    0.51
   9  -1   4   -0.97    0.46
  -9  -1  -4    0.14    0.46
  -9  -1   4    0.26    0.51
   9   1   4    0.00    0.47
   9   1   4    1.20    0.38
  -9   1  -4   -0.32    0.50
  -9  -1   4    0.94    0.67
  -9  -1   4    0.79    0.67
  -9   1  -4    0.44    0.52
  -9   1   5    0.21    0.53
   9  -1   5   -0.11    0.52
  -9   1   5    1.10    0.42
  -9  -1  -5    0.19    0.35
  -9   1  -5   -0.23    0.37
  -9  -1   5   -0.07    0.52
  -9  -1   5    0.93    0.43
   9   1   5    0.48    0.35
 -10   1   0    1.03    0.59
 -10   1   0    1.07    0.67
 -10  -1   0    0.10    0.55
 -10   1   0    0.59    0.48
 -10  -1   0    1.02    0.63
 -10  -1   0    1.30    0.51
 -10  -1  -1    0.48    0.52
  10  -1   1   -0.15    0.50
 -10   1   1    0.98    0.71
 -10   1   1    1.21    0.62
 -10  -1  -1   -0.22    0.56
 -10  -1  -1    1.27    0.67
 -10   1   1    1.30    0.52
 -10  -1   1   -0.04    0.60
 -10   1  -1    1.07    0.55
 -10   1  -1    0.37    0.50
 -10  -1   1    0.01    0.48
  10   1   1    0.25    0.50
 -10   1  -1    0.21    0.60
 -10  -1   1    0.32    0.60
 -10  -1  -2    1.18    0.69
 -10   1   2    0.55    0.43
 -10   1   2   -0.01    0.55
  10  -1   2    1.34    0.51
 -10   1  -2   -0.77    0.65
  10   1   2   -0.02    0.47
 -10  -1   2    0.76    0.58
 -10   1  -2    1.92    0.66
 -10  -1   2   -0.24    0.59
 -10   1   3    0.32    0.30
 -10  -1  -3    0.43    0.38
 -10   1   3    0.03    0.46
  10   1   3    0.49    0.37
 -10  -1   3   -0.31    0.49
 -10   1  -3   -0.22    0.39
 -10  -1   3    0.37    0.39
   0  -2   0  890.44   41.42
   0  -2   0  959.76   41.84
   0   2   0  964.31   41.55
   0   2  -1    0.46    0.33
   0   2  -1    0.31    0.43
   0  -2   1   -0.20    0.30
   0  -2  -1    0.26    0.70
   0  -2   1    0.61    0.97
   0   2   1   -0.07    0.18
   0   2  -1    0.50    0.84
   0   2   1    0.62    0.62
   0  -2  -1    0.31    0.33
   0   2   1   -0.02    0.41
   0   2  -2   43.21    3.61
   0  -2   2   38.03    3.85
   0   2  -2   42.21    2.64
   0   2   2   42.09    2.13
   0  -2  -2   46.24    2.31
   0   2   2   41.88    3.02
   0  -2  -2   38.56    3.34
   0  -2   2   43.52    2.30
   0  -2   2   38.75    2.25
   0   2   2   40.48    2.42
   0   2  -3    0.31    1.14
   0  -2   3    1.83    4.62
   0  -2  -3    0.20    0.70
   0  -2   3   -0.44    0.74
   0   2   3   -2.75    2.02
   0   2   3   -0.31    0.87
   0  -2   3   -0.70    2.63
   0  -2  -3    2.45    2.20
   0   2   3    0.69    0.57
   0  -2   3   -0.15    0.63
   0   2   4  418.78   19.38
   0   2  -4  462.19   20.03
   0  -2   4  376.78   22.75
   0   2   4  417.58   19.12
   0  -2   4  415.90   19.42
   0   2   5   -1.64    0.78
   0   2   5   -0.55    0.72
   0  -2   5   -0.79    0.69
   0  -2   5   -1.68    0.94
   0  -2   5   -1.25    1.28
   0   2  -5    3.62    1.81
   0  -2  -5   -0.63    1.71
   0   2   5    0.18    0.67
   0   2   5    0.97    1.29
   0   2   5    1.62    1.38
   0   2   5   -0.57    0.77
   0  -2   6   23.19    3.46
   0   2   6   23.25    3.40
   0  -2  -6   23.78    4.80
   0  -2   6   24.76    2.03
   0  -2   6   25.46    2.17
   0  -2   6   23.00    1.85
   0   2  -6   32.67    4.47
   0   2   6   26.77    3.46
   0   2   6   23.33    2.02
   0   2   6   27.43    1.84
   0   2   6   25.06    2.07
   0   2   7    1.08    0.94
   0   2  -7   -0.09    0.76
   0   2   7    1.00    0.88
   0   2   7   -1.96    2.82
   0  -2   7    1.08    1.03
   0  -2   7    1.09    2.31
   0   2   7    0.03    1.06
   0  -2   7    0.90    0.85
   0   2  -7   -3.69    2.92
   0  -2   7    1.33    1.05
   0   2   7   -0.08    0.83
   0  -2   7    1.50    0.98
   0  -2   8   34.92    2.37
   0   2   8   38.49    2.31
   0   2  -8   36.41    2.12
   0  -2   8   38.81    2.17
   0   2   8   38.02    2.22
   0   2   9   -1.48    0.70
   0  -2  -9    0.49    0.43
   0  -2   9   -0.05    0.41
   0   2   9   -0.53    0.78
   0   2  -9    0.70    0.46
   0   2   9   -1.28    0.64
   0  -2   9    0.99    0.59
  -1   2   0    0.14    0.47
  -1   2   0    0.06    0.28
  -1  -2   0   -0.13    0.21
  -1  -2   0   -0.02    0.81
   1   2   0    0.35    0.76
   1  -2   0    0.51    0.59
  -1  -2   0   -0.29    0.84
   1   2   0   -0.03    0.30
  -1   2   0   -0.41    0.65
  -1   2   1  853.07   35.51
  -1   2   1  855.26   35.72
   1   2  -1  807.88   36.21
  -1  -2  -1  781.07   35.81
   1   2  -1  819.86   35.60
   1  -2   1  867.24   36.47
   1   2  -1  791.31   35.62
  -1  -2  -1  840.57   36.33
   1  -2   1  749.35   35.63
  -1   2   1  722.07   35.98
  -1   2   1  779.22   35.49
   1   2   1  802.11   35.69
  -1   2  -1  825.28   35.77
  -1   2  -1  809.58   35.73
   1  -2  -1  791.85   35.57
   1   2   1  782.00   36.18
  -1  -2   1  771.92   35.94
   1   2   1  739.29   35.47
  -1  -2   1  853.34   36.27
  -1   2  -1  791.73   35.38
  -1   2   2   83.75    4.27
   1   2  -2   83.04    5.14
   1  -2   2   84.14    4.22
   1  -2   2   87.57    6.07
  -1  -2  -2   71.80    4.28
  -1   2   2   84.77    4.22
  -1  -2  -2   75.55    5.47
  -1   2   2   84.33    4.02
  -1   2   2   84.13    4.31
   1   2  -2   84.68    4.35
  -1   2   2   89.31    4.50
   1   2   2   87.30    4.05
  -1  -2   2   88.88    4.17
  -1   2  -2   87.76    4.22
   1   2   2   73.95    5.21
   1   2   2   88.10    4.26
  -1   2  -2   87.61    4.54
  -1  -2   2   93.06    5.35
  -1  -2   2   81.82    4.28
   1  -2   3  652.00   29.79
  -1  -2  -3  519.24   27.48
   1  -2   3  614.36   30.24
  -1   2   3  614.26   28.15
  -1   2   3  617.30   27.42
  -1   2   3  652.53   27.71
   1   2  -3  660.37   27.99
  -1  -2  -3  521.04   28.05
  -1   2   3  571.60   28.19
   1  -2   3  570.14   27.54
  -1  -2  -3  670.23   29.58
   1   2  -3  628.27   29.08
   1  -2   3  633.36   27.65
  -1  -2   3  518.87   27.39
   1  -2  -3  685.16   27.32
   1   2   3  642.53   27.47
  -1   2  -3  636.13   28.13
  -1  -2   3  613.66   29.03
   1   2   3  560.49   29.14
  -1  -2   3  643.49   27.59
   1   2   3  643.69   27.67
   1  -2   4   28.43    8.06
  -1   2   4   23.02    1.87
   1   2  -4   22.74    2.96
   1  -2   4   24.77    2.37
  -1  -2  -4   19.10    2.89
  -1   2   4   21.27    2.55
   1  -2   4   16.84    2.65
   1   2   4   22.94    2.29
   1   2   4   20.11    1.97
  -1  -2   4   19.36    2.08
  -1   2  -4   21.52    3.53
   1  -2  -4   15.10    3.03
   1   2  -5  410.00   17.76
  -1   2   5  350.59   16.11
   1  -2   5  331.72   16.24
   1  -2   5  348.55   16.13
   1  -2   5  352.82   16.97
  -1   2   5  349.44   16.39
  -1   2   5  358.96   16.72
  -1   2   5  357.89   16.20
  -1   2   5  359.50   16.23
   1  -2   5  353.28   16.23
  -1  -2  -5  374.11   17.94
  -1   2   5  338.64   16.17
  -1   2   5  351.17   17.09
  -1   2  -5  402.12   17.81
   1   2   5  359.77   16.95
   1   2   5  352.44   16.22
  -1  -2   5  377.18   17.03
   1   2   5  350.41   16.80
   1   2   5  369.38   16.12
  -1  -2   5  361.49   16.25
   1   2   5  362.51   16.20
  -1  -2   5  360.61   16.15
  -1  -2   5  346.71   16.32
  -1  -2   5  350.92   16.31
   1   2   5  357.92   16.15
   1   2  -6    4.42    2.63
  -1   2   6    4.24    1.10
  -1   2   6    2.20    2.14
  -1   2   6    5.42    1.09
  -1  -2  -6    7.32    2.88
  -1   2   6    5.79    0.84
   1  -2   6    5.14    0.96
  -1  -2  -6    5.46    0.96
  -1   2   6    4.95    1.15
   1  -2   6    4.66    2.16
  -1   2   6    6.64    1.13
   1   2   6    4.64    0.88
  -1  -2   6    2.44    1.80
   1  -2  -6    7.01    2.86
   1   2   6    4.20    1.05
   1   2   6    5.96    2.16
  -1   2  -6    4.79    2.48
  -1  -2   6    4.29    0.91
  -1  -2   6    8.14    1.32
  -1  -2   6    4.07    1.24
   1   2   6    5.21    2.04
  -1   2   7   81.12    4.11
   1   2  -7   71.99    8.90
  -1  -2  -7   77.47   10.00
  -1   2   7   77.75    3.97
  -1   2   7   75.34    4.23
  -1   2   7   80.57    4.12
   1  -2   7   75.78    5.93
   1  -2   7   76.25    4.17
   1  -2   7   84.74    4.05
   1   2  -7   82.54    3.95
   1   2   7   84.43    4.08
  -1  -2   7   83.44    4.31
  -1   2  -7   80.22    3.96
  -1  -2   7   76.15    4.21
  -1   2  -7   84.17    7.67
   1   2   7   80.87    4.21
  -1  -2   7   77.50    4.05
   1   2   7   78.12    4.00
  -1  -2   7   82.17    4.10
   1  -2  -7   81.33    8.29
  -1   2   8    4.38    1.14
   1   2  -8    3.85    0.71
  -1   2   8    5.30    0.95
   1  -2   8    4.83    0.94
   1  -2   8    4.04    0.73
  -1   2   8    2.46    0.92
  -1  -2   8    2.64    1.12
  -1  -2   8    4.18    0.83
  -1  -2   8    2.31    0.99
   1   2   8    4.48    0.87
  -1   2  -8    3.37    0.77
   1   2   8    2.17    0.88
   1   2   8    3.65    0.71
   1  -2   9   50.61    2.93
   1   2  -9   50.44    2.54
  -1  -2  -9   52.91    2.52
   1  -2   9   51.83    2.49
  -1   2   9   54.13    2.68
  -1   2   9   56.00    2.63
  -1   2   9   53.41    2.56
  -1  -2   9   52.92    2.52
  -1   2  -9   44.76    2.57
  -1  -2   9   51.51    2.63
  -1   2  -9   51.25    2.51
   1  -2  -9   52.13    2.51
   1   2   9   53.90    2.66
  -2   2   0  104.70    4.91
   2   2   0   95.83    5.53
  -2   2   0  100.42    5.06
   2  -2   0  104.03    5.29
  -2  -2   0  110.05    4.75
  -2  -2   0   88.00    5.19
  -2  -2   0  110.97    5.73
   2   2   0  102.54    4.88
   2  -2   0   94.14    5.36
   2  -2   1  156.04    7.33
  -2   2   1  154.36    7.18
   2   2  -1  159.63    7.05
   2  -2   1  157.38    8.72
  -2   2   1  163.02    7.33
   2   2  -1  163.91    8.11
   2   2  -1  156.13    7.31
   2  -2   1  149.61    8.30
  -2   2   1  154.56    7.20
  -2  -2  -1  174.06    8.51
  -2   2   1  149.58    7.38
   2   2   1  153.77    7.31
  -2   2  -1  149.80    7.41
  -2   2  -1  155.74    7.51
  -2  -2   1  157.40    7.19
  -2  -2   1  130.29    7.54
   2   2   1  157.55    8.23
  -2  -2   1  165.31    8.16
  -2  -2  -2  141.36    8.12
  -2   2   2  170.50    7.92
   2  -2   2  174.06   10.56
   2   2  -2  173.02    8.95
   2  -2   2  168.76    7.97
  -2   2   2  169.39    7.97
  -2   2   2  170.31    7.79
  -2  -2  -2  177.87    9.94
  -2   2   2  171.74    7.89
  -2   2  -2  169.27    8.27
   2   2   2  165.53    7.79
  -2  -2   2  175.49    7.86
   2   2   2  168.53    7.94
  -2   2  -2  168.20    8.07
  -2  -2   2  181.31    9.11
  -2  -2   2  141.86    8.12
  -2  -2  -3   43.67    6.93
  -2  -2  -3   31.86    3.21
   2  -2   3   34.61    6.58
  -2   2   3   38.16    2.28
   2  -2   3   39.27    2.52
   2  -2   3   36.69    9.31
   2   2  -3   37.32    2.76
  -2  -2  -3   33.54    2.61
  -2   2   3   38.22    2.66
   2   2  -3   41.20    5.33
  -2   2  -3   37.18    2.51
  -2   2  -3   39.42    3.23
   2   2   3   37.53    2.43
  -2  -2   3   30.90    5.96
   2   2   3   36.97    2.55
   2   2   3   37.26    5.57
  -2  -2   3   31.34    2.56
  -2  -2   3   39.02    2.40
   2  -2   4  291.78   13.39
   2   2  -4  292.95   13.74
  -2  -2  -4  266.51   14.05
  -2  -2  -4  283.19   13.20
  -2   2   4  278.73   13.46
  -2   2   4  276.93   13.14
   2   2   4  278.39   14.14
  -2  -2   4  268.87   13.24
   2   2   4  285.17   13.21
  -2   2  -4  299.72   14.07
  -2   2   5   12.02    1.42
  -2   2   5   12.11    1.13
  -2   2   5   12.01    1.39
   2  -2   5   11.11    1.56
   2   2  -5   15.60    2.62
  -2   2   5   11.97    1.51
  -2   2   5   12.54    2.18
  -2   2   5   13.61    1.45
   2  -2   5   14.47    2.41
  -2   2   5   10.50    1.79
  -2  -2  -5   10.62    2.37
   2  -2   5   13.01    1.90
   2  -2   5   11.81    1.18
  -2  -2   5   10.48    1.40
  -2  -2   5   13.13    1.72
   2   2   5   12.33    1.85
   2   2   5   10.64    1.33
  -2  -2   5   12.53    2.03
   2  -2  -5    6.44    2.37
  -2  -2   5   10.62    1.77
   2   2   5   13.70    1.84
  -2   2  -5   12.01    2.48
   2   2   5   12.91    1.28
   2   2   5    8.28    1.27
  -2  -2   5   10.75    1.24
   2   2   5   12.59    1.93
  -2   2  -5   10.36    1.26
  -2   2   6  169.74    8.08
  -2  -2  -6  189.16   10.30
   2  -2   6  172.61    8.03
   2  -2   6  170.44    9.15
   2   2  -6  167.84   10.33
  -2   2   6  168.52    8.06
  -2   2   6  175.38    7.94
  -2   2   6  155.70    9.02
  -2   2   6  165.28    9.58
  -2   2   6  172.66    7.90
  -2   2   6  170.72    8.06
  -2  -2  -6  172.40    7.89
   2  -2   6  174.98    7.94
  -2  -2   6  176.17    7.99
   2   2   6  182.43    8.03
  -2   2  -6  177.91   10.00
  -2  -2   6  159.89    8.10
   2   2   6  175.06    8.06
  -2  -2   6  171.97    9.18
  -2  -2   6  176.75    8.20
   2   2   6  166.55    9.12
  -2   2  -6  171.86    7.91
   2   2   6  160.75    9.00
   2  -2  -6  172.39   10.50
   2   2   6  167.45    7.90
  -2  -2   6  171.48    8.13
   2  -2   7   -0.89    2.39
   2  -2   7    0.47    0.71
  -2  -2  -7   -0.40    0.87
   2   2  -7   -0.41    3.16
  -2   2   7    1.50    1.18
  -2   2   7    1.38    0.99
  -2   2   7    0.27    1.09
  -2   2   7    0.68    0.75
   2  -2   7   -0.33    0.98
   2   2  -7    0.04    0.81
  -2  -2  -7   -1.44    2.52
  -2  -2   7    1.74    1.28
  -2  -2   7   -0.14    0.87
  -2   2  -7    0.35    0.79
  -2   2  -7    1.30    2.84
   2   2   7   -4.32    3.65
  -2  -2   7    1.25    1.11
  -2  -2   7   -1.84    2.33
   2  -2  -7   -3.82    4.32
   2   2   7   -0.62    0.94
  -2  -2   7    1.18    1.06
   2   2   7    1.13    0.74
   2   2   7   -1.26    0.88
  -2   2   8   67.39    3.66
   2  -2   8   65.91    3.45
  -2   2   8   69.09    3.53
  -2   2   8   67.46    3.55
   2  -2   8   66.19    3.36
   2   2   8   68.34    3.54
   2   2   8   72.12    3.49
   2   2   8   70.24    3.39
  -2  -2   8   66.17    3.62
  -2   2  -8   70.88    3.40
  -2  -2   8   65.26    3.46
  -2  -2   8   70.39    3.48
  -2  -2  -9    0.64    0.41
   2  -2   9    0.45    0.46
  -2   2   9    0.15    0.56
  -2   2   9    0.61    0.58
   2  -2   9    2.05    0.60
  -2   2   9    1.67    0.55
  -2  -2   9    0.75    0.64
  -2   2  -9    0.48    0.40
   2   2   9    1.64    0.55
   2  -2  -9    0.26    0.54
  -2  -2   9    1.27    0.44
  -3   2   0   -0.18    0.57
   3  -2   0   -1.04    1.41
   3   2   0   -0.32    0.58
  -3  -2   0   -0.49    1.71
  -3  -2   0   -1.38    0.87
   3  -2   0    0.04    2.23
  -3  -2   0   -0.22    0.52
  -3   2   0    1.25    0.77
   3  -2   0    0.09    0.48
   3   2   0    2.01    1.58
   3  -2   1  131.54    8.20
  -3  -2  -1  144.82    8.67
   3   2  -1  145.69    6.71
   3  -2   1  143.41    6.69
  -3  -2  -1  116.10    7.04
  -3   2   1  143.41    6.57
   3   2  -1  143.70    8.06
   3  -2   1  123.21    9.39
  -3   2   1  140.30    6.60
  -3   2   1  136.70    6.88
  -3   2  -1  144.44    6.81
  -3  -2   1  146.26    7.78
  -3  -2   1  143.01    6.55
   3   2   1  145.31    6.69
  -3  -2   1  119.38    7.07
   3   2   1  133.55    8.08
  -3   2  -1  136.89    7.04
  -3  -2  -2   92.93    5.29
  -3  -2  -2  111.22    8.55
   3  -2   2   91.52    7.72
  -3   2   2   97.64    4.78
   3  -2   2   92.79   10.16
  -3  -2  -2   87.93    5.32
   3  -2   2  103.12    5.00
  -3   2   2   95.47    4.94
  -3   2   2  103.60    4.91
  -3   2   2   92.58    4.88
   3   2  -2   93.50    6.71
   3   2  -2   97.15    5.02
   3   2   2   95.22    4.75
  -3   2  -2   94.80    5.29
  -3  -2   2   81.83    5.26
   3   2   2   93.77    4.91
  -3  -2   2   94.66    4.77
  -3  -2   2   97.29    6.47
   3   2   2   84.32    7.13
  -3   2  -2   95.77    5.25
  -3   2   3  275.05   13.19
  -3  -2  -3  299.62   13.68
   3   2  -3  273.29   13.19
  -3  -2  -3  307.20   14.01
  -3   2   3  287.20   13.44
   3  -2   3  279.73   17.37
  -3   2   3  280.88   13.25
   3   2   3  288.39   13.25
  -3   2  -3  294.56   13.97
  -3   2  -3  289.17   13.55
  -3  -2   3  272.10   13.46
   3   2   3  278.53   13.31
  -3   2   4    3.43    0.90
  -3   2   4    2.33    0.93
  -3   2   4    4.22    0.88
  -3  -2  -4    3.95    1.53
  -3   2   4    4.07    1.13
  -3  -2  -4    4.35    1.65
   3   2  -4    3.80    1.94
   3  -2   4    3.35    1.40
  -3   2   4    2.54    1.18
  -3   2   4    4.72    1.53
  -3  -2   4    3.79    0.74
   3   2   4    5.38    0.89
   3  -2  -4    1.43    2.19
  -3  -2   4    4.02    0.97
  -3   2  -4    3.43    0.66
  -3  -2   4    2.94    1.14
  -3   2  -4    1.99    1.51
   3   2   4    3.43    2.22
  -3  -2   4    3.83    0.98
  -3   2  -4    3.48    1.79
  -3   2  -4    2.54    0.89
  -3  -2   4    4.68    1.36
   3   2   4    1.61    1.20
   3   2   4    4.74    0.77
  -3  -2   4    1.69    1.03
  -3   2   5  266.75   13.10
  -3   2   5  264.40   12.29
  -3  -2  -5  315.14   14.27
  -3   2   5  269.69   13.55
  -3   2   5  275.24   12.48
   3  -2   5  274.98   12.28
   3  -2   5  263.76   13.18
  -3   2   5  266.76   12.30
  -3  -2  -5  274.58   12.30
  -3   2   5  270.49   12.42
  -3   2   5  265.92   12.42
   3  -2   5  266.20   12.35
  -3   2  -5  282.73   12.32
   3   2   5  265.33   12.34
   3   2   5  272.36   13.04
  -3  -2   5  280.13   12.45
   3   2   5  267.50   13.07
   3   2   5  262.90   12.29
  -3  -2   5  278.67   12.47
  -3  -2   5  252.27   13.17
  -3  -2   5  281.06   12.54
  -3   2  -5  283.37   12.30
  -3  -2   5  272.89   12.32
  -3   2  -5  286.42   14.14
  -3  -2   5  278.61   12.48
   3  -2  -5  226.21   14.21
   3  -2   6    7.41    0.97
   3   2  -6    6.91    2.87
   3  -2   6   11.94    2.51
  -3   2   6    9.33    1.34
  -3   2   6    9.81    1.28
  -3   2   6    6.85    1.15
   3  -2   6    9.75    1.56
  -3  -2  -6   12.92    3.04
  -3   2   6    9.09    1.35
  -3   2   6    6.51    1.22
  -3  -2  -6    8.34    1.37
   3   2   6    8.81    2.86
   3   2   6    7.25    1.14
  -3   2  -6    8.52    1.02
  -3   2  -6    8.15    2.82
   3  -2  -6    5.43    4.51
   3   2   6   10.61    1.41
  -3  -2   6    4.56    2.18
  -3  -2   6    8.25    1.30
  -3  -2   6    4.91    1.30
  -3   2  -6   10.54    1.37
  -3  -2   6    7.98    1.12
  -3  -2   6    6.70    1.34
  -3   2   7   77.62    3.92
  -3   2   7   78.08    4.17
   3  -2   7   76.72    3.97
   3  -2   7   76.93    3.85
  -3   2   7   79.40    4.16
   3  -2   7   78.13    6.07
  -3  -2  -7   83.57    3.89
  -3   2   7   82.87    4.30
   3   2  -7   79.08    7.17
  -3   2  -7   66.34    6.97
  -3   2  -7   78.89    3.88
   3   2   7   77.59    3.88
  -3  -2   7   75.14    4.51
  -3  -2   7   81.36    4.22
  -3  -2   7   78.15    4.00
  -3  -2  -8   15.40    1.74
   3  -2   8   15.69    1.22
  -3   2   8   17.73    1.73
  -3   2   8   17.66    1.61
   3  -2   8   15.79    1.36
  -3   2   8   18.20    1.55
  -3  -2   8   16.28    1.38
  -3   2  -8   16.15    1.32
   3   2   8   16.08    1.43
  -3  -2   8   15.59    1.58
  -3  -2   8   16.81    1.53
  -3  -2  -9   35.91    1.76
  -3   2   9   36.56    1.90
  -3   2   9   38.58    1.85
   3  -2   9   31.86    1.71
  -3   2  -9   38.36    1.82
  -3  -2   9   35.55    1.79
  -3  -2   9   35.92    1.83
   3   2   9   36.10    1.85
  -3  -2   9   36.67    1.95
  -4  -2   0  375.16   16.34
  -4   2   0  357.93   17.04
  -4   2   0  339.30   16.35
   4   2   0  325.49   18.07
  -4  -2   0  368.01   17.18
   4   2   0  370.25   16.45
   4  -2   0  350.79   16.14
  -4  -2   0  373.17   18.50
  -4   2   1   38.64    2.58
  -4  -2  -1   51.13    6.88
  -4   2   1   38.47    2.53
   4  -2   1   38.85    2.68
   4   2  -1   39.50    2.79
  -4   2   1   39.98    3.12
  -4  -2  -1   38.69    3.08
  -4   2  -1   35.94    2.75
   4   2   1   34.83    5.98
  -4  -2   1   38.14    2.50
   4   2   1   39.45    2.68
  -4   2  -1   39.67    3.22
  -4  -2   1   41.19    3.38
   4   2  -2  353.41   16.50
   4  -2   2  376.92   16.52
  -4  -2  -2  361.61   21.62
  -4   2   2  357.24   16.82
  -4  -2  -2  384.23   17.10
  -4  -2  -2  373.07   16.54
  -4   2   2  346.38   16.61
   4   2   2  358.89   16.31
   4   2   2  359.61   16.40
  -4   2  -2  385.70   17.04
   4   2   2  304.27   19.42
  -4   2  -2  349.49   16.74
  -4  -2   2  302.82   16.67
  -4  -2   2  340.59   16.95
  -4  -2  -3   35.53    3.39
  -4   2   3   31.49    2.71
  -4   2   3   31.60    2.13
  -4  -2  -3   34.55    3.36
   4   2  -3   32.40    3.10
   4  -2   3   33.03    2.86
  -4   2   3   33.73    2.06
  -4  -2  -3   33.92    2.03
  -4   2   3   31.37    2.68
  -4  -2   3   33.53    1.92
  -4  -2   3   31.39    2.05
  -4   2  -3   29.40    2.10
  -4  -2   3   33.65    2.05
  -4  -2   3   35.40    3.32
  -4   2  -3   33.83    2.03
   4   2   3   32.77    2.54
   4   2   3   31.75    2.87
  -4  -2   3   34.90    2.83
  -4  -2   3   30.95    2.06
  -4   2  -3   33.02    3.32
  -4   2  -3   31.88    3.26
   4  -2   4  177.71    9.03
  -4   2   4  169.40    8.91
  -4  -2  -4  186.43    9.66
  -4   2   4  196.33    8.65
   4  -2   4  171.78    8.15
  -4  -2  -4  181.60    8.13
  -4   2   4  184.92    8.26
  -4   2   4  173.61    8.10
  -4  -2  -4  180.99    9.59
   4   2  -4  177.68    9.19
  -4   2   4  172.14    8.15
  -4  -2   4  174.39    8.10
   4   2   4  169.75    9.16
  -4   2  -4  176.29    8.09
  -4  -2   4  179.36    8.25
  -4  -2   4  172.77    8.96
  -4  -2   4  175.87    8.22
   4   2   4  171.04    8.76
  -4   2  -4  174.36    8.14
  -4   2  -4  184.37    9.65
   4   2   4  176.82    8.15
   4   2   4  152.63    8.34
  -4  -2   4  170.54    8.27
  -4  -2   4  176.79    8.24
  -4   2  -4  180.85    9.58
  -4  -2  -5    4.95    2.50
  -4   2   5    7.69    1.18
   4  -2   5    8.04    1.86
  -4   2   5    9.61    1.59
  -4   2   5    4.75    1.95
  -4   2   5    7.79    1.22
  -4  -2  -5    8.79    1.06
   4  -2   5    7.59    1.32
   4   2  -5    4.75    2.23
  -4   2   5    8.14    1.01
   4   2   5    9.93    2.55
  -4  -2   5    5.43    1.90
  -4  -2   5    6.45    1.19
  -4  -2   5   10.59    1.67
   4   2   5    8.45    1.27
  -4   2  -5    7.87    1.21
  -4   2  -5    6.67    1.02
  -4  -2   5    6.02    0.95
  -4  -2   5    6.89    1.31
   4   2   5    9.38    1.89
  -4  -2   5    6.90    1.21
   4   2   5   10.88    1.29
  -4   2  -5    4.33    2.35
   4   2  -6   73.10    6.71
  -4   2   6   67.62    3.69
  -4   2   6   65.26    3.70
   4  -2   6   64.73    3.50
  -4   2   6   64.92    3.65
  -4  -2  -6   64.66    6.52
   4  -2   6   66.18    3.37
  -4  -2  -6   70.13    3.43
  -4   2   6   55.29    5.71
   4  -2   6   60.62    5.00
  -4   2   6   66.98    3.47
  -4   2  -6   67.69    3.43
  -4  -2   6   66.43    3.48
  -4   2  -6   67.02    3.37
  -4  -2   6   72.23    3.66
   4   2   6   66.45    3.50
  -4  -2   6   66.62    3.76
  -4   2  -6   57.57    6.21
  -4  -2   6   62.97    3.68
  -4   2   7    1.79    1.21
   4  -2   7    2.66    0.78
  -4   2   7   -0.33    0.69
  -4  -2  -7    0.34    1.00
  -4  -2   7    0.79    1.41
  -4   2  -7    1.29    0.90
   4   2   7    2.04    1.18
  -4   2  -7    0.15    0.70
  -4  -2   7    1.63    1.13
  -4  -2   7    0.17    1.31
  -4   2   8   26.67    1.78
  -4  -2  -8   28.23    1.54
  -4   2   8   31.62    1.85
   4  -2   8   25.83    1.66
  -4   2   8   27.52    1.88
  -4  -2  -8   28.66    1.58
   4  -2   8   26.16    1.51
  -4  -2   8   24.33    1.85
  -4  -2   8   27.34    1.80
   4   2   8   30.41    1.81
  -4  -2   8   26.04    1.67
  -4   2  -8   28.36    1.59
  -5  -2   0    0.72    1.54
  -5  -2   0   -1.21    0.78
  -5   2   0   -0.84    1.56
   5   2   0    0.51    1.19
  -5   2   0   -0.51    0.82
  -5   2   0    2.06    0.90
  -5  -2   0    1.61    0.92
  -5   2   0    0.72    0.66
  -5   2   1  108.11    5.78
  -5   2   1  123.59    5.63
   5   2  -1  124.89    6.45
   5  -2   1  120.33    6.41
  -5   2   1  107.21    5.73
  -5  -2  -1  119.73    5.76
  -5  -2  -1  124.68    5.77
  -5   2   1  123.17    7.08
  -5  -2  -1  134.51    7.18
  -5  -2   1  138.48    7.41
  -5   2  -1  128.66    7.13
  -5  -2   1  117.77    6.19
  -5   2  -1  113.57    5.67
  -5  -2   1  126.21    5.69
  -5   2  -1  123.01    5.66
  -5   2  -1  113.84    5.72
  -5   2  -1  108.60    6.38
  -5  -2   1  122.84    5.73
  -5   2  -1  112.43    5.73
  -5  -2   1  114.07    5.71
   5   2   1  119.35    6.32
   5  -2  -1  118.73    6.22
  -5  -2   1  124.09    5.85
  -5   2   2    0.34    1.58
  -5   2   2   -0.24    0.65
  -5  -2  -2    1.54    1.10
   5  -2   2    0.52    1.19
  -5   2   2    1.08    0.90
  -5  -2  -2    1.48    0.76
  -5   2   2    0.70    0.80
   5   2  -2   -0.80    1.46
  -5   2   2    0.80    1.31
  -5  -2  -2    0.75    0.92
  -5   2   2    0.63    0.88
  -5  -2  -2    0.01    1.77
  -5   2  -2    0.01    0.99
  -5   2  -2   -1.69    1.48
  -5  -2   2    0.78    0.75
  -5  -2   2    1.91    0.77
  -5   2  -2   -0.47    0.72
  -5   2  -2    0.40    0.86
  -5  -2   2    2.34    2.01
   5   2   2    1.71    1.33
  -5   2  -2    0.36    0.73
  -5  -2   2    1.32    1.02
   5  -2  -2   -0.86    1.44
  -5  -2   2    0.29    0.67
   5   2   2    1.07    1.33
  -5  -2   2   -0.04    0.82
  -5  -2   2    0.39    1.19
  -5   2   3  199.87    9.26
  -5  -2  -3  200.82    9.25
  -5   2   3  208.87    9.44
  -5  -2  -3  184.43    9.25
  -5   2   3  190.99    9.46
  -5   2   3  190.92   10.19
  -5   2   3  211.57    9.38
  -5  -2  -3  199.44    9.31
  -5   2   3  199.07   10.13
  -5  -2  -3  232.48   10.94
   5  -2   3  197.12   10.17
   5   2  -3  203.28   10.33
   5  -2   3  196.97    9.29
  -5   2  -3  208.85    9.31
  -5   2  -3  199.19    9.35
  -5  -2   3  198.43    9.38
  -5   2  -3  199.80    9.30
  -5   2  -3  187.11    9.24
   5   2   3  197.49    9.95
  -5  -2   3  208.04    9.36
  -5  -2   3  208.67   10.19
  -5  -2   3  204.08    9.26
  -5  -2   3  209.58   10.67
  -5  -2   3  208.59    9.39
  -5   2  -3  214.40   10.72
  -5   2  -3  205.92   10.69
   5   2   3  192.68   10.02
  -5   2  -3  216.06    9.31
  -5   2   4    0.78    0.87
  -5  -2  -4   -0.55    0.93
   5  -2   4   -0.99    1.68
   5   2  -4    1.04    2.44
  -5   2   4    2.44    1.77
  -5   2   4   -0.60    1.13
  -5  -2  -4    0.37    0.78
   5  -2   4   -0.08    0.77
  -5  -2  -4   -0.61    2.39
  -5   2   4    0.45    0.74
  -5   2   4    0.72    1.15
  -5  -2   4   -1.14    1.52
  -5  -2   4    0.32    0.90
  -5  -2   4    0.25    0.80
   5   2   4    0.48    0.79
  -5  -2   4    0.13    1.01
  -5   2  -4   -1.10    0.90
  -5   2  -4   -1.61    0.91
  -5   2  -4    0.76    0.70
  -5   2  -4    0.13    2.37
  -5  -2   4    0.30    1.00
  -5   2  -4    0.74    1.07
  -5   2  -4   -0.18    2.35
   5   2   4   -1.11    2.18
   5  -2   5   11.94    2.28
  -5   2   5   18.51    1.82
   5  -2   5   18.01    1.54
  -5   2   5   17.01    1.61
   5   2  -5   27.38    4.25
  -5   2   5   18.27    1.85
  -5   2   5   14.76    1.86
  -5   2   5   20.38    2.80
  -5  -2  -5   19.47    1.71
  -5   2  -5   18.79    1.48
  -5   2  -5   22.67    3.72
  -5  -2   5   17.14    2.02
   5   2   5   15.85    1.38
  -5  -2   5   17.53    1.72
  -5  -2   5   21.48    2.03
  -5  -2   5   16.99    2.00
  -5  -2   5   15.70    2.57
  -5   2  -5   20.81    1.78
   5   2   5   20.21    1.74
  -5   2   6    2.80    1.08
   5   2  -6   -2.59    3.57
  -5  -2  -6    2.80    0.92
   5  -2   6    9.22    2.73
  -5   2   6    2.47    1.06
  -5   2   6    1.49    1.08
  -5  -2  -6    3.55    0.71
  -5   2   6   -7.71    5.57
   5  -2   6    3.01    0.86
  -5   2   6    3.32    0.84
   5  -2   6    2.73    0.71
  -5   2  -6    2.20    0.71
  -5  -2   6    3.56    0.96
   5   2   6    3.37    0.97
  -5  -2   6   -0.57    3.07
  -5  -2   6    3.16    1.15
  -5  -2   6    5.53    1.07
  -5  -2   6    3.74    1.15
  -5   2  -6    3.24    0.88
  -5   2  -6   10.05    4.44
  -5   2   7   49.92    3.32
  -5   2   7   60.61    3.17
  -5  -2  -7   59.49    2.96
   5  -2   7   60.27    2.99
   5  -2   7   60.11    2.90
  -5  -2  -7   58.37    2.89
  -5   2   7   58.14    3.22
  -5   2   7   60.53    2.98
  -5   2  -7   59.48    2.92
  -5   2  -7   58.87    2.95
  -5  -2   7   57.64    3.06
  -5  -2   7   57.48    3.20
  -5  -2   7   56.74    3.26
   5   2   7   61.38    3.04
   5  -2   8    1.16    0.41
  -5  -2  -8    2.53    0.52
  -5   2   8    1.92    0.61
  -5   2   8    1.14    0.61
  -5  -2  -8    1.03    0.39
   5   2   8    1.74    0.51
  -5  -2   8    1.17    0.65
  -5  -2   8    1.15    0.51
  -5   2  -8    1.56    0.49
  -5  -2   8    1.05    0.56
  -6  -2   0   55.39    2.87
  -6   2   0   54.90    5.03
  -6   2   0   52.06    2.95
  -6  -2   0   52.92    3.04
  -6  -2   0   53.19    3.00
  -6   2   0   56.33    3.07
  -6  -2   0   56.33    3.00
  -6   2   0   54.55    2.98
  -6   2   0   58.31    2.90
   6   2   0   49.52    4.11
  -6   2   0   52.00    3.00
  -6   2   1    1.86    0.82
  -6   2   1    0.97    0.72
  -6   2   1   -1.54    2.06
  -6  -2  -1    2.34    0.89
   6   2  -1    0.09    1.64
  -6   2   1   -0.18    0.91
  -6  -2  -1   -0.20    2.08
  -6   2   1    0.72    0.90
  -6  -2  -1    0.30    0.84
  -6  -2  -1    1.63    1.03
   6  -2   1    0.15    1.57
  -6  -2  -1    0.65    0.83
  -6  -2  -1    1.08    1.01
   6   2   1    2.02    1.41
  -6   2  -1    0.58    0.77
  -6   2  -1    1.13    1.08
  -6   2  -1    1.14    0.81
   6   2   1   -1.25    0.99
   6   2   1   -0.67    1.58
  -6  -2   1    3.34    2.32
  -6  -2   1    1.21    0.76
  -6  -2   1    0.99    0.65
  -6  -2   1    2.15    0.85
  -6   2  -1    0.74    0.88
  -6   2  -1    0.86    2.21
  -6   2  -1   -0.07    0.81
  -6  -2   1    1.77    0.95
  -6  -2  -2  284.99   13.13
  -6   2   2  249.03   12.71
  -6   2   2  253.53   11.21
   6  -2   2  248.14   12.17
  -6   2   2  229.82   11.25
  -6   2   2  247.20   11.11
  -6  -2  -2  235.65   11.09
  -6   2   2  232.20   11.15
  -6  -2  -2  238.57   11.08
  -6  -2  -2  258.48   11.19
  -6  -2  -2  231.67   11.17
   6   2  -2  238.59   12.23
  -6  -2   2  239.42   12.19
   6  -2  -2  236.73   12.24
  -6   2  -2  241.21   11.16
  -6   2  -2  253.31   11.14
  -6  -2   2  245.38   12.99
   6   2   2  246.10   11.98
  -6   2  -2  263.78   11.22
  -6   2  -2  239.31   11.18
  -6  -2   2  215.02   11.33
  -6   2  -2  273.02   13.06
  -6  -2   2  239.77   11.27
  -6  -2   2  228.04   11.17
   6   2   2  246.37   12.97
  -6  -2   2  235.02   11.14
  -6  -2   2  246.57   11.10
  -6   2   3    2.44    1.06
   6  -2   3    1.92    1.99
   6  -2   3    2.80    0.91
  -6   2   3    2.41    0.90
  -6   2   3    4.34    1.07
  -6  -2  -3    4.04    0.86
  -6  -2  -3    4.45    0.87
  -6  -2  -3    2.93    2.68
  -6   2   3    3.26    1.95
  -6   2   3   -1.14    2.37
   6   2  -3    7.34    2.22
  -6  -2  -3    2.82    0.93
  -6   2   3    4.60    0.96
  -6  -2   3    2.97    1.08
   6   2   3    3.72    1.93
  -6  -2   3    4.46    1.84
  -6  -2   3    3.78    1.20
  -6   2  -3    3.64    1.04
  -6  -2   3    2.62    0.88
  -6   2  -3    4.54    1.01
  -6  -2   3    4.34    2.77
  -6  -2   3    4.26    0.99
   6  -2  -3    0.68    2.34
  -6   2  -3    3.55    0.99
  -6   2  -3    3.02    0.98
  -6   2  -3    4.35    2.68
  -6  -2  -4   65.84    7.05
   6   2  -4   69.16    5.63
  -6   2   4   68.72    3.58
  -6  -2  -4   70.12    3.60
   6  -2   4   70.07    3.56
  -6   2   4   70.94    3.86
  -6  -2  -4   72.20    3.61
   6  -2   4   67.54    5.54
  -6   2   4   70.10    3.76
  -6   2   4   73.75    5.26
  -6   2   4   67.59    3.64
  -6  -2   4   71.16    5.23
  -6   2  -4   70.81    3.57
   6  -2  -4   67.13    5.66
  -6  -2   4   70.71    3.64
  -6  -2   4   72.12    3.74
  -6  -2   4   70.76    3.88
   6   2   4   70.03    3.67
   6   2   4   57.37    5.30
  -6   2  -4   69.37    3.71
  -6   2  -4   72.72    6.71
  -6  -2   4   73.27    3.83
  -6   2  -4   64.26    3.67
  -6   2   5    0.95    0.93
  -6   2   5    0.87    1.08
  -6   2   5    0.05    0.81
   6  -2   5    1.03    0.77
   6   2  -5    0.64    3.13
   6  -2   5   -0.91    2.29
  -6   2   5   -0.56    2.78
  -6  -2  -5    1.96    0.98
  -6   2  -5    0.48    0.95
  -6   2  -5    0.93    0.68
  -6  -2   5    0.59    0.99
  -6  -2   5   -0.46    1.03
   6  -2  -5    3.14    3.13
   6   2   5    0.69    0.58
  -6  -2   5    1.73    1.19
   6   2   5    0.45    0.94
  -6  -2   5    0.59    0.97
  -6  -2   5   -4.02    2.65
  -6   2   6   87.58    4.48
   6  -2   6   89.57    4.25
   6  -2   6   85.59    4.31
  -6   2   6   91.50    4.35
  -6  -2  -6   93.41    4.33
  -6   2   6   88.04    4.52
  -6  -2   6   90.79    4.39
  -6   2  -6   92.16    4.35
  -6  -2   6   88.11    4.55
  -6  -2   6   98.28    4.50
  -6   2  -6   84.42    4.22
   6   2   6   84.69    4.33
  -6   2   7   -0.42    0.53
   6   2  -7    2.48    1.12
  -6   2   7    0.05    0.75
   6  -2   7    0.54    0.72
  -6  -2  -7    0.79    0.50
   6  -2   7    0.06    0.39
  -6   2   7    0.83    0.74
  -6   2  -7    0.89    0.64
  -6  -2   7    0.20    0.73
  -6   2  -7    1.09    0.52
   6   2   7    0.14    0.57
  -6  -2   7    0.88    0.59
  -6  -2   7   -0.32    0.86
  -7   2   0    0.25    0.90
  -7  -2   0    1.07    2.56
  -7   2   0    0.76    0.98
   7   2   0    1.39    0.94
  -7  -2   0   -0.03    0.88
  -7   2   0   -0.99    0.92
  -7  -2   0    0.21    0.95
  -7  -2   0    0.38    0.83
  -7   2   0   -0.19    0.82
  -7   2   0   -2.11    2.64
  -7   2   0    1.29    0.98
   7  -2   0    2.49    1.89
  -7  -2   0   -1.03    1.07
   7   2   0    2.76    2.63
   7   2  -1   37.34    4.26
  -7  -2  -1   30.71    2.08
  -7  -2  -1   35.13    2.24
  -7   2   1   29.30    2.37
  -7   2   1   32.35    2.14
  -7  -2  -1   32.99    2.30
  -7  -2  -1   29.28    2.14
  -7   2   1   30.90    2.26
  -7   2   1   35.55    6.79
  -7   2   1   29.94    2.23
  -7  -2   1   31.88    2.22
  -7   2  -1   30.53    2.25
  -7  -2   1   36.15    5.96
  -7  -2   1   31.34    2.08
  -7   2  -1   28.88    2.28
  -7  -2   1   31.96    2.45
  -7   2  -1   32.94    2.15
   7   2   1   28.10    3.84
  -7  -2   1   32.58    2.33
  -7   2  -1   34.02    2.35
   7   2  -2    7.49    2.63
  -7  -2  -2    2.45    0.87
   7  -2   2    1.00    2.09
  -7  -2  -2    3.03    1.02
  -7   2   2    1.79    1.18
  -7  -2  -2    3.76    2.79
  -7   2   2    1.11    0.88
  -7  -2  -2    2.55    0.86
  -7  -2  -2    2.99    1.01
  -7   2   2    1.90    0.86
  -7   2   2    3.04    3.66
  -7   2   2    0.35    1.00
   7   2   2    1.61    2.15
  -7   2  -2    2.38    1.05
  -7  -2   2    0.95    3.47
  -7  -2   2    3.36    0.93
  -7   2  -2    2.65    2.68
  -7   2  -2    1.04    0.98
  -7   2  -2    2.64    1.10
  -7   2  -2    1.93    0.92
  -7  -2   2    2.55    1.07
  -7  -2   2    1.36    1.22
  -7  -2   2    2.59    0.87
   7  -2   3   36.84    2.30
  -7   2   3   32.53    2.26
   7  -2   3   30.74    4.42
  -7   2   3   37.49    2.37
  -7   2   3   39.24    2.70
  -7  -2  -3   42.98    5.93
  -7  -2  -3   42.39    2.40
   7   2  -3   35.44    5.18
  -7  -2  -3   37.37    2.23
  -7  -2  -3   37.80    2.30
  -7   2   3   36.03    2.53
  -7  -2   3   39.07    2.56
  -7   2  -3   36.40    2.42
  -7  -2   3   38.34    2.37
  -7   2  -3   39.20    2.39
  -7   2  -3   40.80    2.52
   7   2   3   39.60    4.97
   7   2   3   39.70    2.46
  -7  -2   3   32.26    4.36
  -7  -2   3   32.13    2.30
  -7   2  -3   31.92    5.75
  -7   2  -3   37.42    2.38
  -7  -2   3   38.32    2.62
  -7  -2  -4    5.76    0.90
  -7   2   4    8.79    1.36
  -7   2   4    3.85    0.87
  -7   2   4    6.03    1.27
   7  -2   4    3.46    0.86
  -7  -2  -4    3.94    0.93
  -7   2   4    4.75    1.22
   7  -2   4   11.00    3.09
   7   2  -4    4.54    3.02
  -7  -2   4    5.67    1.09
  -7   2  -4    6.60    1.13
  -7  -2   4    2.92    1.21
   7   2   4    4.45    1.04
  -7  -2   4    9.62    1.64
  -7   2  -4    5.07    0.87
  -7  -2   4    6.02    1.06
  -7  -2   4   -2.17    2.96
  -7   2  -4    5.01    1.00
  -7   2   5   69.29    3.62
  -7  -2  -5   72.19    3.49
  -7   2   5   71.00    3.68
  -7   2   5   66.87    3.48
   7  -2   5   64.11    3.40
  -7   2   5   68.59    3.46
  -7  -2   5   66.24    3.73
   7   2   5   68.35    3.49
  -7  -2   5   77.94    3.72
  -7  -2   5   62.60    3.50
  -7   2  -5   72.83    3.56
  -7  -2   5   67.09    3.58
  -7   2   6   -0.44    0.56
   7  -2   6    0.61    0.83
  -7   2   6    0.25    0.78
  -7  -2  -6    0.40    0.60
   7  -2   6   -0.39    0.42
  -7   2   6   -0.90    0.57
  -7  -2   6    0.24    0.72
  -7  -2   6   -1.07    0.79
  -7  -2   6    0.78    0.64
  -7   2  -6   -0.90    0.57
  -7  -2   6    0.18    0.76
   7   2   6   -1.14    0.59
  -7   2   7   21.87    1.33
  -7   2   7   20.36    1.17
  -7  -2  -7   20.84    1.14
   7  -2   7   19.41    1.04
   7   2   7   20.11    1.13
  -7  -2   7   20.90    1.18
  -7  -2   7   18.72    1.32
  -7   2  -7   20.14    1.20
  -8   2   0   60.10    3.51
  -8  -2   0   64.12    3.63
  -8  -2   0   63.00    3.45
  -8   2   0   69.00    3.69
   8  -2   0   63.84    6.08
  -8   2   0   69.39    3.60
  -8  -2   0   64.94    7.20
  -8   2   0   68.68    3.54
  -8   2   0   71.88    7.32
  -8  -2   0   68.21    3.57
   8   2   0   65.37    6.12
  -8  -2  -1    4.98    3.76
  -8   2   1    5.45    4.04
  -8   2   1    3.85    1.17
  -8   2   1    0.62    1.01
  -8   2   1    2.55    0.95
  -8  -2  -1    5.46    1.09
  -8  -2  -1    3.52    0.87
   8   2  -1    2.79    0.99
  -8  -2  -1    2.52    0.95
   8  -2   1    2.88    2.44
  -8   2   1    3.27    1.08
  -8   2  -1    3.03    0.99
   8   2   1    3.21    2.78
  -8  -2   1    2.55    1.01
  -8   2  -1    2.49    0.87
  -8  -2   1    2.10    1.06
  -8  -2   1    1.70    1.20
  -8   2  -1    3.11    1.12
  -8  -2   1    3.29    0.96
  -8   2  -1    0.07    3.46
  -8   2  -1    2.28    0.99
   8  -2  -1   -2.85    2.92
  -8  -2   1    0.60    3.70
  -8  -2  -2   50.19    3.14
  -8  -2  -2   56.74    3.09
  -8   2   2   57.81    3.28
  -8   2   2   58.24    3.13
  -8   2   2   61.40    3.33
  -8  -2  -2   50.94    6.73
  -8   2   2   56.09    3.13
   8  -2   2   71.44    6.07
  -8  -2  -2   56.85    3.01
  -8  -2  -2   59.04    3.15
  -8   2  -2   55.87    6.74
  -8  -2   2   57.12    3.09
  -8  -2   2   57.67    3.41
  -8   2  -2   60.90    3.19
  -8  -2   2   58.90    3.36
  -8   2  -2   58.32    3.18
  -8  -2   2   56.50    3.13
  -8   2  -2   57.26    3.18
  -8   2  -2   53.67    3.10
  -8  -2  -3   25.07    1.67
  -8   2   3   26.23    2.31
  -8  -2  -3   22.04    2.08
  -8   2   3   22.67    2.00
   8  -2   3   21.48    1.67
   8   2   3   21.88    2.29
  -8  -2   3   19.63    2.73
  -8   2  -3   21.47    1.73
  -8   2  -3   22.75    2.03
  -8  -2  -4   49.02    2.49
  -8   2   4   44.72    2.87
   8  -2   4   44.67    2.42
  -8   2   4   41.90    2.65
  -8   2   4   44.09    2.50
  -8  -2  -4   47.75    2.43
  -8   2  -4   48.10    2.57
  -8  -2   4   49.60    2.79
  -8  -2   4   45.36    2.75
   8   2   4   46.24    2.51
  -8   2  -4   43.56    2.44
  -8  -2   4   43.65    2.50
  -8   2   5    1.21    0.55
  -8   2   5    0.03    0.71
  -8  -2  -5    1.10    0.60
   8  -2   5    0.67    0.49
  -8  -2   5    1.36    0.81
  -8  -2   5    0.91    0.61
  -8   2  -5    0.83    0.57
   8   2   5    0.11    0.50
  -8  -2   5   -0.04    0.70
   8  -2   6   24.58    1.25
  -8   2   6   25.33    1.50
  -8   2   6   23.69    1.32
  -8  -2  -6   23.09    1.26
   8   2   6   23.07    1.30
  -8  -2   6   23.20    1.44
  -8  -2   6   22.44    1.30
  -9  -2   0    1.09    0.82
  -9   2   0    0.12    0.82
  -9  -2   0    0.37    0.80
  -9   2   0   -0.39    0.72
  -9  -2   0    0.85    0.67
  -9   2   0    0.54    0.84
  -9  -2  -1   39.47    2.43
  -9  -2  -1   41.48    2.30
  -9   2   1   42.85    2.41
  -9   2   1   44.20    2.51
  -9  -2  -1   46.77    2.47
  -9   2   1   43.37    2.55
  -9   2  -1   42.33    2.36
  -9  -2   1   44.28    2.45
  -9  -2   1   42.80    2.55
  -9   2  -1   41.46    2.36
  -9   2  -1   44.31    2.54
  -9  -2   1   38.79    2.40
  -9   2  -1   41.64    2.49
  -9   2   2    2.30    0.91
  -9   2   2    1.04    0.87
   9  -2   2    2.18    0.72
  -9  -2  -2    1.28    0.72
  -9   2   2    2.40    0.76
  -9   2   2    2.05    0.81
  -9  -2   2    2.52    0.70
  -9  -2   2    0.98    0.91
  -9   2  -2    0.57    0.72
  -9   2  -2    0.46    0.73
  -9   2  -2    0.88    0.66
  -9  -2   2    0.79    0.91
  -9  -2   2    1.43    0.66
   9   2   2    1.29    0.69
  -9   2  -2    1.82    0.77
   9  -2   3   21.29    2.00
  -9   2   3   28.34    1.78
   9   2  -3   24.66    1.68
  -9  -2  -3   27.01    1.58
  -9   2   3   23.41    1.63
  -9  -2  -3   26.42    1.55
  -9   2   3   29.07    1.76
   9   2   3   24.20    1.64
  -9  -2   3   24.59    1.86
  -9   2  -3   26.81    1.59
  -9   2  -3   26.10    1.61
  -9  -2   3   28.06    1.82
  -9   2  -3   25.33    1.63
  -9  -2   3   25.74    1.60
  -9   2   4    0.88    0.51
  -9   2   4    1.66    0.59
  -9  -2  -4    0.72    0.69
   9   2  -4    1.02    0.54
  -9  -2  -4    2.55    0.61
  -9   2   4    0.73    0.65
  -9  -2   4    0.13    0.64
  -9   2  -4    1.27    0.61
  -9   2  -4    0.41    0.47
  -9  -2   4    0.05    0.66
   9   2   4    0.57    0.50
  -9  -2   4    0.22    0.50
 -10  -2   0   38.48    1.95
 -10  -2   0   34.10    1.89
  10  -2   0   35.77    2.07
 -10   2   0   38.51    2.02
 -10   2   0   34.96    1.92
 -10   2   0   38.84    1.99
 -10  -2   0   41.63    2.30
 -10   2   1    0.09    0.45
 -10   2   1    0.08    0.59
 -10  -2  -1    0.55    0.46
 -10   2   1    0.31    0.61
 -10  -2  -1    0.75    0.68
  10   2   1    0.59    0.52
 -10  -2   1   -0.08    0.48
 -10  -2   1    0.19    0.61
 -10   2  -1   -0.12    0.70
 -10   2  -1   -0.86    0.49
 -10  -2   1    0.28    0.50
 -10   2   2   13.87    1.08
 -10  -2  -2   12.09    0.88
 -10   2   2   11.63    0.94
 -10   2  -2   10.74    0.93
 -10   2  -2    8.68    0.96
 -10  -2   2   14.82    1.08
  10   2   2   10.45    0.94
 -10  -2   2   11.76    0.88
   0  -3   0   -0.33    0.26
   0  -3   0    0.75    0.91
   0   3   0    0.24    0.47
   0  -3  -1  603.34   26.63
   0  -3  -1  611.76   26.29
   0   3  -1  578.30   26.25
   0  -3   1  582.80   26.91
   0  -3   1  556.45   26.06
   0   3  -1  591.24   26.91
   0   3   1  599.10   26.59
   0   3   1  598.79   26.27
   0   3   1  553.52   26.21
   0   3  -1  580.27   26.10
   0  -3  -2    0.10    0.57
   0   3   2   -0.24    0.68
   0   3  -2   -2.53    2.05
   0  -3  -2   -1.90    1.44
   0   3   2    0.56    0.70
   0   3   2   -0.11    0.37
   0   3  -2    0.09    0.76
   0   3  -2    0.25    0.63
   0  -3   2   -0.01    0.63
   0   3   2    0.79    1.28
   0  -3   2    0.01    0.52
   0  -3   2    1.25    2.10
   0   3   3    1.11    2.26
   0   3   3    0.08    0.58
   0  -3  -3    0.43    0.81
   0  -3   3    8.23    3.73
   0  -3   3   -0.08    0.74
   0  -3  -3   -0.59    2.79
   0   3  -3    1.71    1.10
   0  -3   3    0.19    0.91
   0   3  -4    0.51    1.45
   0  -3   4    0.03    1.01
   0   3   4   -1.03    0.90
   0   3   4    0.86    1.09
   0   3  -5  114.44    6.97
   0   3   5  112.33    5.37
   0  -3   5  121.32    6.42
   0   3   5  114.77    5.34
   0   3   5  111.14    5.29
   0  -3   5   97.00    5.50
   0  -3   5  101.89    5.98
   0   3  -5  107.36    5.27
   0   3   5  108.57    5.22
   0   3   5  109.28    5.90
   0  -3   5  116.92    5.30
   0   3   5  117.42    6.34
   0   3  -6   -0.96    0.75
   0  -3   6   -0.38    1.72
   0   3  -6    1.38    2.61
   0   3   6    0.38    0.93
   0   3   6    0.13    0.77
   0   3   6    3.47    2.10
   0  -3   6    0.40    2.02
   0   3   6    0.14    0.89
   0  -3   6    1.02    0.91
   0   3   6   -0.55    0.81
   0  -3  -6   -0.05    2.28
   0  -3   6   -1.24    1.00
   0   3   7    3.66    0.96
   0  -3   7    3.60    1.13
   0   3   7    3.24    1.01
   0   3  -7    4.11    0.89
   0   3   7   -1.65    2.49
   0  -3   7    1.86    2.24
   0   3   7    2.16    1.08
   0  -3  -7    7.52    3.04
   0  -3   7    1.72    0.85
   0   3  -7   15.25    5.17
   0   3   7    3.42    0.93
   0   3   8   -0.39    0.99
   0  -3   8   -1.16    1.04
   0  -3   8   -0.01    0.66
   0   3   8   -0.33    0.71
   0   3   8   -0.03    0.79
   0   3  -8   -1.04    0.61
   0   3  -9    5.60    0.79
   0   3  -9    4.20    0.60
   0   3   9    3.75    0.72
   0  -3   9    4.81    0.81
   0   3   9    4.38    0.69
   0   3   9    4.28    0.66
   0  -3   9    4.56    0.65
  -1  -3   0    0.82    0.63
   1  -3   0   -0.36    0.45
   1   3   0    0.07    0.44
  -1   3   0    1.76    0.95
  -1  -3   0    1.89    1.11
  -1   3   0    0.26    0.41
  -1  -3   0    0.00    0.25
   1   3   0    0.36    1.04
  -1   3   0    0.00    0.54
   1   3   0    0.07    0.51
  -1   3   0   -0.23    0.51
   1  -3   0    0.04    0.90
  -1  -3  -1  124.70    5.82
   1   3  -1  117.48    6.46
  -1  -3  -1  121.79    6.48
   1   3  -1  116.76    5.55
  -1   3   1  120.30    5.66
   1  -3   1  113.48    6.58
   1   3  -1  113.61    5.55
  -1   3   1  119.70    5.68
   1  -3   1  117.36    5.56
  -1   3   1  115.92    5.54
  -1  -3   1  122.29    5.44
   1   3   1  117.92    5.62
   1   3   1  107.63    5.20
   1   3   1  115.08    5.65
  -1   3  -1  111.54    6.33
  -1  -3   1  118.71    6.53
  -1  -3   1  121.04    5.78
  -1   3  -1  113.70    5.69
  -1   3  -1  117.34    5.69
   1   3   1  102.74    6.20
  -1   3  -1  113.81    5.33
   1  -3  -1  120.85    5.71
  -1   3   2   20.60    1.80
  -1   3   2   18.79    1.67
   1   3  -2   21.94    4.09
  -1   3   2   18.55    1.22
  -1  -3  -2   17.00    1.68
   1  -3   2   23.83    4.30
   1   3  -2   18.67    1.62
   1  -3   2   20.02    1.66
   1   3  -2   17.03    1.58
  -1  -3  -2   14.67    2.55
  -1   3   2   20.86    1.73
   1   3   2   19.40    1.69
  -1   3  -2   15.76    1.37
   1   3   2   19.38    1.19
  -1   3  -2   18.55    1.81
   1  -3  -2   19.42    2.48
  -1  -3   2   20.66    1.84
  -1  -3   2   18.38    1.44
   1   3   2   19.87    3.02
  -1  -3  -3    1.04    0.90
   1  -3   3    0.20    0.91
  -1   3   3    0.31    2.10
   1   3  -3    1.81    1.10
  -1   3   3    2.35    1.07
  -1   3   3    2.00    0.66
   1  -3   3    5.29    4.05
   1   3  -3    5.43    3.14
  -1  -3  -3    1.09    3.57
   1  -3  -3    2.28    0.78
   1   3   3    1.41    0.88
  -1  -3   3    8.79    3.69
  -1  -3   3    1.45    0.82
  -1  -3   3    0.99    1.07
  -1   3  -3    3.04    1.48
   1   3   3    0.33    0.68
   1   3   3   -1.77    3.83
  -1   3   4    0.10    0.91
  -1  -3  -4    1.52    1.59
   1  -3   4    1.39    1.10
   1   3  -4   -0.40    1.60
  -1   3   4    0.68    1.26
   1   3   4    0.73    1.03
   1   3   4    0.28    1.13
  -1   3  -4   -0.91    1.54
  -1  -3   4    0.56    1.06
  -1   3   5   31.59    2.86
  -1  -3  -5   24.79    4.13
   1  -3   5   30.03    3.14
   1   3  -5   28.21    2.05
   1   3  -5   29.37    4.16
  -1   3   5   29.31    1.98
  -1   3   5   35.72    3.50
   1  -3   5   29.71    1.91
  -1   3   5   31.14    1.86
   1  -3   5   30.89    2.39
  -1   3   5   30.66    2.04
  -1   3   5   28.74    1.98
   1  -3   5   26.28    2.26
  -1  -3   5   31.73    1.95
  -1  -3   5   32.05    2.14
  -1  -3   5   26.17    2.50
   1   3   5   31.01    1.86
   1   3   5   30.78    3.01
   1   3   5   32.27    2.14
   1   3   5   30.55    3.00
   1   3   5   32.07    1.92
  -1  -3   5   30.97    2.45
  -1   3  -5   32.21    1.90
  -1  -3   5   31.89    3.21
   1   3   5   30.04    2.01
  -1  -3   5   32.23    2.37
  -1   3  -5   31.23    4.15
   1   3  -6   10.83    2.67
   1  -3   6   17.18    1.60
   1  -3   6   17.43    1.89
   1   3  -6   19.42    1.59
  -1   3   6   17.64    1.81
  -1  -3  -6   16.51    3.45
  -1   3   6   17.74    2.94
  -1   3   6   17.36    1.91
   1   3  -6   18.36    3.39
  -1   3   6   18.30    1.49
  -1   3   6   16.92    1.71
   1  -3   6   19.32    2.68
  -1   3  -6   17.73    1.57
   1   3   6   17.53    1.61
  -1  -3   6   11.30    2.42
  -1  -3   6   17.80    1.59
  -1  -3   6   23.21    2.33
  -1   3  -6   22.56    4.57
  -1  -3   6   14.80    1.85
   1   3   6   19.22    1.57
   1  -3  -6   13.64    3.30
  -1  -3   6   16.48    2.12
   1   3   6   17.66    2.60
   1   3   6   15.99    1.72
   1   3   6   18.60    1.84
   1  -3   7    6.19    2.76
  -1  -3  -7    7.28    1.21
  -1   3   7    1.83    2.78
   1   3  -7    8.02    3.95
  -1   3   7    8.62    1.30
   1  -3   7    8.40    1.25
   1  -3   7    8.81    1.15
   1   3  -7    6.78    0.97
  -1   3   7    7.41    1.35
  -1   3   7    9.30    1.30
  -1   3   7   10.10    1.62
  -1  -3  -7    7.90    3.33
  -1  -3   7    7.01    1.20
   1   3   7    8.51    1.07
  -1  -3   7    5.60    2.64
   1  -3  -7    7.42    3.11
  -1   3  -7    8.10    0.99
  -1  -3   7    8.03    1.36
  -1   3  -7    3.92    3.25
  -1  -3   7    7.10    1.09
   1   3   7    6.61    1.17
   1   3   7    7.74    2.94
   1   3   7    8.09    1.08
   1   3  -8    5.84    0.90
   1  -3   8    5.58    0.82
  -1   3   8    5.26    1.02
   1  -3   8    5.72    0.98
  -1   3   8    4.67    0.98
  -1   3   8    5.67    1.15
  -1   3  -8    5.04    0.82
   1   3   8    7.03    1.06
   1   3   8    5.98    1.02
  -1  -3   8    4.21    0.86
  -1  -3   8    5.03    1.02
   1   3   8    4.87    0.89
  -1   3   9    0.16    0.53
  -1   3   9    0.67    0.61
  -1   3   9   -0.48    0.49
   1  -3   9    0.00    0.42
  -1  -3  -9    0.67    0.41
  -1  -3   9    0.47    0.38
   1   3   9    0.75    0.56
  -1   3  -9   -0.43    0.40
   1   3   9    1.70    0.67
   1  -3  -9   -0.29    0.45
  -1  -3   9    0.86    0.75
  -2  -3   0   50.75    3.27
   2  -3   0   59.73    3.69
  -2   3   0   54.97    3.14
   2   3   0   52.06    2.95
  -2  -3   0   57.97    2.72
  -2   3   0   54.26    3.06
  -2  -3   0   55.08    4.03
   2   3   0   56.84    2.82
   2  -3   0   55.14    3.33
  -2   3   0   53.47    2.64
   2   3  -1   26.34    1.62
   2  -3   1   24.90    3.42
   2   3  -1   25.91    1.89
  -2   3   1   24.77    1.62
  -2  -3  -1   33.98    3.62
   2  -3   1   24.24    3.65
  -2   3   1   26.72    1.90
  -2   3   1   22.98    1.56
  -2   3   1   25.75    1.88
  -2  -3  -1   22.27    2.07
   2  -3   1   27.01    1.83
  -2   3  -1   26.45    2.03
  -2   3  -1   24.91    1.98
   2   3   1   23.74    3.03
  -2  -3   1   27.81    3.89
  -2  -3   1   21.87    2.21
   2   3   1   26.66    1.91
  -2  -3   1   25.59    1.54
  -2   3   2  187.27    8.76
   2  -3   2  194.04    9.01
   2   3  -2  190.04    8.83
   2   3  -2  190.88    9.00
   2  -3   2  176.23   10.92
   2  -3   2  178.97   12.01
  -2   3   2  198.31    8.93
  -2   3   2  196.82    9.06
  -2   3   2  197.08    8.97
   2   3  -2  193.54   10.49
  -2  -3  -2  167.83    9.24
  -2   3  -2  197.93    9.36
  -2  -3   2  201.96   10.54
   2   3   2  185.68    8.70
  -2  -3   2  175.63    9.30
   2   3   2  173.51   10.51
   2   3   2  191.67    9.00
  -2  -3   2  190.88    8.83
  -2   3  -2  196.36    9.15
   2   3  -3   59.79    3.75
  -2  -3  -3   49.85    4.25
   2   3  -3   60.84    3.67
  -2   3   3   64.93    3.72
   2  -3   3   51.59    8.31
   2  -3   3   63.26    3.69
   2   3  -3   64.00    7.17
  -2   3   3   60.45    3.33
  -2  -3   3   54.93    3.89
  -2   3  -3   63.11    3.71
   2   3   3   60.54    3.31
  -2   3  -3   66.19    4.28
   2   3   3   66.73    3.65
  -2  -3   3   61.08    3.47
   2   3  -4   37.36    3.54
  -2   3   4   33.49    2.24
  -2   3   4   31.33    3.02
  -2   3   4   35.15    2.05
  -2  -3  -4   30.46    3.06
  -2   3   4   29.41    2.52
   2  -3   4   34.13    2.82
  -2  -3  -4   24.13    3.62
   2   3  -4   36.80    3.18
  -2  -3   4   32.56    2.72
  -2  -3   4   30.51    2.42
   2   3   4   35.30    2.04
   2   3   4   37.91    2.85
  -2  -3   4   34.37    1.92
  -2   3  -4   36.14    3.80
  -2   3  -4   30.94    2.00
   2   3   4   33.55    2.61
  -2   3   5   -2.40    1.48
   2   3  -5   -1.60    2.42
  -2   3   5   -0.43    0.78
  -2   3   5   -0.53    0.85
  -2   3   5    1.27    0.88
   2  -3   5    1.34    1.19
   2  -3   5    0.18    1.44
  -2  -3  -5    0.50    2.07
   2   3  -5    4.55    1.74
  -2   3   5   -0.67    0.69
   2  -3   5    0.93    0.71
  -2   3   5   -0.71    1.65
  -2  -3   5    1.24    1.11
  -2  -3   5    0.86    0.67
  -2  -3   5    1.55    1.63
  -2  -3   5    0.09    1.04
   2   3   5    1.28    1.49
   2   3   5   -0.20    0.69
   2  -3  -5   -1.79    2.10
   2   3   5   -0.66    0.95
  -2  -3   5    0.59    0.99
  -2   3  -5    0.84    1.70
  -2   3  -5   -0.68    0.65
   2   3   5    1.68    0.76
  -2   3  -5    2.31    2.03
   2   3   5    1.04    0.77
   2  -3   6    0.29    1.00
  -2   3   6    0.62    0.97
   2   3  -6   -1.78    2.50
  -2   3   6   -0.52    0.88
  -2  -3  -6   -0.59    3.11
  -2   3   6    0.27    0.71
   2   3  -6   -0.15    0.94
   2  -3   6    1.03    0.85
   2   3  -6   -1.63    3.35
  -2   3   6    1.77    0.92
   2  -3   6    2.93    2.21
  -2  -3  -6    1.10    0.79
  -2   3   6   -3.27    2.72
   2  -3  -6   -4.25    3.08
  -2  -3   6   -0.06    1.03
  -2  -3   6   -0.07    0.79
   2   3   6    0.21    0.80
   2   3   6    0.87    0.83
  -2   3  -6    0.74    0.83
  -2  -3   6    0.00    1.07
   2   3   6   -0.49    2.07
   2   3   6   -1.42    0.85
   2   3   6   -0.02    0.91
  -2   3  -6    0.20    2.62
  -2  -3   6    2.58    2.38
   2   3  -7    5.63    3.90
  -2   3   7    2.18    1.11
   2   3  -7    1.77    0.87
  -2  -3  -7    3.55    3.17
   2  -3   7    1.71    0.78
  -2  -3  -7    2.11    0.83
   2  -3   7    2.53    2.54
  -2   3   7    2.84    1.03
  -2   3   7    1.16    0.74
  -2   3   7    3.73    1.14
   2  -3   7    2.43    1.01
   2  -3  -7   -3.85    4.30
  -2  -3   7   -3.23    2.38
  -2   3  -7    4.11    3.02
  -2  -3   7    4.42    1.24
   2   3   7    4.56    0.95
   2   3   7    3.25    0.87
   2   3   7   -2.56    3.08
  -2  -3   7    2.75    1.03
   2   3   7    2.11    1.08
  -2   3  -7    3.27    0.88
  -2  -3   7    1.33    0.93
  -2   3   8    1.17    0.97
   2  -3   8    0.68    0.56
  -2   3   8    0.47    0.85
  -2   3   8    1.29    0.87
   2  -3   8    2.39    0.86
  -2  -3   8    1.20    0.75
  -2   3  -8    1.77    0.70
  -2  -3   8    1.18    0.85
  -2  -3   8    0.86    0.78
   2   3   8    0.93    0.88
   2   3   8   -0.23    0.59
   2   3   8    0.74    0.74
   2  -3   9    3.68    0.57
  -2   3   9    2.24    0.56
  -2   3   9    2.61    0.68
  -2  -3  -9    1.94    0.40
  -2  -3   9    2.01    0.68
   2   3   9    2.53    0.57
  -2   3  -9    2.52    0.49
   2  -3  -9    1.34    0.50
  -2  -3   9    2.86    0.66
  -3  -3   0    0.42    0.59
  -3   3   0    0.02    0.69
   3  -3   0   -1.18    1.53
   3   3   0   -0.14    0.74
   3   3   0    2.71    2.63
   3  -3   0   -1.25    1.85
  -3   3   0   -0.10    0.92
  -3  -3   0   -1.70    1.00
  -3  -3   0    0.36    2.62
  -3  -3   0    1.66    0.88
  -3   3   1   92.62    5.14
  -3   3   1  104.06    4.76
   3  -3   1   91.13    7.64
  -3   3   1   95.93    4.98
  -3  -3  -1   79.99    5.39
   3  -3   1  102.45    7.08
   3  -3   1   96.58    4.96
   3   3  -1   98.55    5.04
  -3  -3  -1  110.46    7.66
   3   3  -1  101.42    6.88
  -3   3  -1   98.04    5.13
  -3  -3   1   96.02    6.67
  -3  -3   1   83.70    5.43
   3   3   1   90.78    6.72
  -3  -3   1   99.55    4.76
  -3   3  -1  100.46    5.39
   3   3   1   98.83    5.01
   3  -3   2   37.37    8.38
  -3   3   2   23.68    2.15
   3   3  -2   24.55    2.18
   3  -3   2   23.32    2.04
  -3   3   2   25.55    2.10
   3   3  -2   30.55    4.42
  -3  -3  -2   22.57    2.61
  -3   3   2   26.31    1.94
  -3  -3  -2   18.68    2.63
  -3  -3  -2   26.87    6.86
  -3   3   2   23.87    2.11
  -3  -3   2   25.25    1.93
   3   3   2   28.99    4.78
   3   3   2   24.82    2.25
   3   3   2   23.29    1.84
  -3   3  -2   29.14    2.56
  -3   3  -2   24.32    2.65
  -3  -3   2   28.37    5.49
  -3  -3   2   20.42    2.64
   3  -3   3   22.36    2.23
  -3  -3  -3   18.92    2.57
  -3   3   3   18.90    1.87
   3   3  -3   19.75    2.39
  -3  -3  -3   16.60    2.87
  -3   3  -3   17.48    2.92
  -3  -3   3   16.36    2.75
  -3   3  -3   23.88    2.50
  -3  -3   3   21.94    2.07
   3   3   3   16.71    2.94
   3   3   3   20.38    1.94
   3  -3   4    0.68    1.32
  -3   3   4    1.07    0.80
  -3   3   4    2.67    1.20
  -3   3   4   -0.35    0.79
  -3   3   4   -0.89    1.55
  -3   3   4    0.16    0.85
  -3  -3  -4    0.97    1.74
  -3  -3  -4   -0.07    1.85
  -3   3   4   -0.41    0.85
  -3   3   4   -0.16    1.21
   3   3  -4   -1.08    1.80
   3   3   4    0.57    0.73
  -3   3  -4   -1.30    0.93
  -3  -3   4    1.13    1.10
  -3   3  -4   -0.22    0.66
  -3  -3   4   -2.13    1.22
  -3  -3   4    0.32    0.57
   3   3   4    0.46    1.37
   3   3   4   -0.48    0.73
  -3   3  -4   -0.02    1.90
  -3   3  -4   -0.91    1.67
  -3  -3   4   -0.58    0.95
  -3  -3   4   -0.26    0.91
   3   3   4    0.80    0.76
  -3   3  -4    0.81    1.15
  -3  -3   4   -0.31    0.91
   3   3   4    0.22    1.31
   3  -3   5    3.54    1.65
   3   3  -5    0.75    2.12
  -3   3   5    2.56    2.14
  -3   3   5    2.34    0.92
  -3   3   5    3.37    0.86
  -3   3   5    5.06    1.15
  -3  -3  -5    4.23    0.90
  -3   3   5    3.89    0.96
  -3   3   5    3.96    0.81
  -3  -3  -5    3.82    2.33
  -3   3   5    3.18    1.64
   3  -3   5    3.66    1.15
  -3   3  -5    0.87    1.23
  -3  -3   5    2.70    1.01
   3   3   5    2.77    0.81
  -3  -3   5    4.02    1.68
   3   3   5    4.12    1.48
   3   3   5    2.73    0.76
  -3   3  -5    3.66    0.99
   3  -3  -5    2.12    2.99
  -3  -3   5    5.57    1.26
  -3  -3   5    2.35    1.03
  -3   3  -5    0.24    2.18
   3   3   5    0.67    1.53
  -3  -3   5    3.36    1.04
  -3  -3  -6    2.43    0.84
   3   3  -6    5.29    2.62
  -3   3   6    0.89    1.00
  -3   3   6    2.60    1.00
  -3  -3  -6    6.10    2.57
   3  -3   6    5.82    2.90
   3  -3   6    2.01    0.82
  -3   3   6    1.72    0.76
  -3   3   6    2.56    1.02
   3  -3   6    1.24    1.09
  -3   3   6    1.01    0.88
  -3  -3   6    2.03    1.05
   3   3   6    1.60    0.74
  -3  -3   6    1.29    1.10
   3  -3  -6   -0.47    4.24
  -3   3  -6    1.59    0.81
  -3  -3   6    2.14    0.89
  -3   3  -6    2.88    1.02
   3   3   6    0.75    2.37
  -3  -3   6    2.52    1.22
   3   3   6    1.54    0.90
  -3   3  -6    1.36    2.46
  -3  -3   6    2.62    2.04
   3  -3   7   16.62    1.93
   3  -3   7   27.03    5.35
  -3   3   7   17.56    1.89
  -3   3   7   19.38    2.10
  -3  -3  -7   19.64    1.58
  -3   3   7   17.25    1.92
   3  -3   7   17.34    1.48
  -3  -3   7   15.93    1.93
  -3  -3   7   17.44    1.72
  -3  -3   7   17.29    3.96
  -3   3  -7   14.54    4.69
  -3   3  -7   19.65    1.58
  -3  -3   7   17.97    1.95
   3   3   7   18.04    1.46
   3   3   7   19.33    1.78
  -3  -3  -8    2.24    0.63
  -3   3   8    0.12    0.77
  -3   3   8    2.25    0.79
   3  -3   8    1.85    0.56
  -3  -3   8    3.05    0.77
  -3  -3   8   -0.12    0.82
   3   3   8    2.39    0.72
  -3  -3   8    1.74    0.69
  -3  -3  -9    5.39    0.54
   3   3  -9    7.32    0.92
  -3   3   9    6.02    0.70
   3  -3   9    4.66    0.51
  -3   3   9    5.08    0.68
  -3   3  -9    5.84    0.56
  -3  -3   9    4.94    0.57
  -4   3   0   65.52    3.92
   4   3   0   49.48   10.03
  -4  -3   0   73.35    3.67
   4  -3   0   63.63    5.53
  -4   3   0   70.47    4.53
   4   3   0   70.48    3.98
  -4  -3   0   62.64    4.61
  -4   3   1    3.68    1.09
  -4  -3  -1    6.73    6.39
   4  -3   1    1.98    1.19
  -4   3   1    2.38    1.32
  -4  -3  -1    4.22    2.04
  -4  -3   1    0.87    1.33
  -4   3  -1    3.94    1.24
   4   3   1    3.42    1.17
   4   3   1    5.86    5.29
  -4  -3   1    3.75    0.99
  -4  -3  -2    4.96    1.54
  -4   3   2    5.57    1.44
   4  -3   2    6.35    1.37
   4   3  -2    7.92    1.64
  -4   3   2    7.70    1.37
  -4   3   2    4.42    1.30
  -4  -3  -2    5.93    1.83
  -4  -3   2    5.67    1.24
  -4   3  -2    5.05    1.89
  -4  -3   2    3.87    1.65
   4   3   2    5.14    1.28
   4   3   2    7.57    1.17
  -4   3  -2    5.26    1.80
   4  -3   3   62.72    3.99
  -4   3   3   50.23    3.95
  -4   3   3   54.15    3.69
  -4   3   3   63.39    3.16
  -4  -3  -3   51.53    3.26
  -4  -3  -3   61.59    4.56
   4   3  -3   61.67    4.04
  -4   3   3   57.41    3.00
  -4   3   3   57.58    3.09
  -4  -3   3   56.30    3.17
  -4   3  -3   59.17    3.19
  -4   3  -3   55.93    4.49
   4   3   3   54.33    3.85
  -4  -3   3   59.02    4.83
  -4   3  -3   62.70    3.02
  -4  -3   3   55.53    3.05
  -4   3  -3   57.91    3.00
  -4  -3   3   59.55    2.96
  -4   3  -3   61.77    3.22
  -4  -3   3   58.83    3.82
   4   3   3   57.83    3.82
   4   3   3   53.45    3.04
  -4  -3   3   58.12    3.14
  -4   3  -3   56.09    3.05
   4   3   3   55.96    2.96
  -4   3  -3   65.24    4.46
  -4   3   4    0.44    1.42
  -4  -3  -4    3.09    2.09
  -4   3   4    2.70    0.87
   4  -3   4    2.60    1.54
  -4   3   4    2.18    0.89
  -4   3   4    1.42    1.01
   4  -3   4   -0.75    0.96
  -4  -3  -4    3.60    2.24
  -4   3   4    1.67    0.73
   4   3  -4    4.18    2.11
  -4  -3  -4    3.17    0.84
   4   3   4   -0.67    1.57
  -4   3  -4    1.43    2.06
  -4   3  -4    0.41    2.20
  -4   3  -4    3.32    1.01
   4  -3  -4    0.38    3.59
  -4  -3   4    1.62    1.62
   4   3   4    0.15    1.58
  -4   3  -4    2.77    0.92
   4   3   4    3.09    0.81
  -4   3  -4    1.50    0.67
  -4  -3   4    1.96    0.95
   4   3   4    1.39    0.76
  -4  -3   4    1.12    0.93
  -4  -3   4    3.21    0.93
  -4  -3   4    1.91    0.78
  -4   3   5    4.23    0.84
  -4   3   5    1.26    0.99
  -4  -3  -5    1.71    2.77
  -4  -3  -5    4.33    0.94
  -4   3   5    2.26    1.97
  -4   3   5    3.08    0.99
   4  -3   5    2.37    1.78
   4  -3   5    5.73    1.07
   4   3  -5    4.64    2.43
  -4   3   5    3.31    1.05
   4   3   5    5.08    2.28
  -4  -3   5    4.48    2.13
  -4  -3   5    2.57    1.17
  -4  -3   5    3.77    0.95
  -4  -3   5    6.28    1.17
  -4   3  -5    3.27    0.80
  -4   3  -5    3.44    0.94
   4   3   5    3.86    0.88
   4   3   5    3.63    0.88
  -4  -3   5    2.36    1.07
  -4   3  -5    3.37    2.52
   4   3  -6    9.67    3.48
  -4   3   6   13.56    1.84
  -4  -3  -6   13.30    3.81
  -4   3   6   11.27    1.78
  -4   3   6   11.67    1.39
   4  -3   6   13.84    1.73
   4  -3   6   11.18    2.39
   4  -3   6   14.58    1.38
  -4  -3  -6   13.23    1.50
  -4   3   6   12.93    1.79
  -4  -3   6    8.49    2.87
  -4  -3   6   12.64    1.78
   4   3   6   10.59    1.41
  -4   3  -6    9.51    3.56
  -4  -3   6   11.70    1.49
  -4   3  -6   12.14    1.43
  -4  -3   6   11.78    1.58
  -4  -3   6   13.75    1.88
   4   3   6   15.60    1.60
  -4   3  -6   11.24    1.54
  -4  -3  -7    0.28    0.67
  -4   3   7    0.78    1.06
   4  -3   7   -0.22    0.85
  -4   3   7   -1.08    1.04
   4  -3   7   -0.43    0.63
  -4   3   7    1.27    1.02
  -4  -3   7    1.45    0.84
  -4   3  -7    0.95    0.87
  -4  -3   7    0.90    0.99
  -4  -3   7   -0.39    1.03
   4   3   7   -1.23    0.68
  -4   3  -7    0.33    0.72
  -4   3   8   -0.07    0.71
  -4   3   8   -0.32    0.66
  -4  -3  -8   -0.26    0.37
  -4  -3  -8    0.14    0.48
   4  -3   8   -0.04    0.43
  -4   3   8    0.12    0.67
  -4   3  -8    0.11    0.43
   4   3   8    0.27    0.51
  -4  -3   8   -0.52    0.62
  -4  -3   8    0.69    0.73
  -4  -3   8    1.04    0.59
  -5  -3   0    1.04    0.86
  -5  -3   0    0.69    0.92
  -5   3   0    2.80    0.83
   5   3   0    0.81    1.26
  -5  -3   0    0.51    0.82
  -5   3   0    0.20    0.68
  -5   3   0    0.62    0.87
  -5   3   0   -0.19    0.84
  -5  -3   0    1.13    1.65
  -5   3   0   -0.45    1.81
  -5   3   0    0.15    1.39
  -5  -3  -1    8.33    1.34
  -5   3   1    7.12    1.08
   5   3  -1    5.31    1.52
   5  -3   1    9.36    1.76
  -5  -3  -1    7.98    1.33
  -5   3   1    6.76    1.98
  -5   3   1    7.42    1.07
  -5  -3  -1    5.04    1.77
  -5   3   1    8.44    1.16
   5  -3  -1    5.63    2.73
  -5  -3   1    7.24    1.40
  -5   3  -1    8.66    1.36
  -5  -3   1    6.09    0.98
  -5   3  -1    7.55    0.99
  -5  -3   1    8.62    1.18
  -5  -3   1    7.25    2.13
   5   3   1    5.64    1.31
  -5  -3   1    7.16    1.16
  -5  -3   1    7.35    0.94
  -5   3  -1    7.81    0.96
  -5   3  -1    6.17    2.04
  -5   3  -1    7.02    1.10
   5   3   1    5.98    0.96
  -5  -3  -2    4.98    0.88
  -5   3   2    5.23    0.86
   5   3  -2    5.56    1.55
  -5   3   2    6.16    1.06
  -5  -3  -2    5.83    2.10
  -5  -3  -2    4.39    0.99
   5  -3   2    2.29    1.56
  -5   3   2    2.98    0.83
  -5   3   2    5.80    1.80
  -5   3   2    4.58    1.11
  -5  -3   2    4.13    1.01
   5   3   2    6.00    1.41
  -5   3  -2    5.63    1.00
  -5  -3   2    2.91    1.36
   5   3   2    5.44    1.05
  -5   3  -2    6.08    0.99
   5  -3  -2    0.70    1.66
  -5  -3   2    3.56    0.91
  -5   3  -2    4.70    1.00
  -5   3  -2    6.12    1.97
  -5   3  -2    5.67    0.88
   5   3   2    7.13    1.69
  -5  -3   2    4.70    0.82
  -5  -3   2    5.38    1.06
  -5  -3   2    5.34    0.93
  -5  -3   2    2.69    2.06
  -5   3  -2    3.95    2.02
   5  -3   3   -0.02    1.53
  -5   3   3    0.07    1.43
  -5  -3  -3   -0.68    2.27
  -5   3   3   -0.73    0.88
  -5  -3  -3   -0.30    0.91
  -5   3   3   -0.20    1.10
   5  -3   3   -1.69    0.97
  -5   3   3    0.95    0.91
  -5   3   3   -0.34    1.57
   5   3  -3    2.28    1.76
  -5   3   3    0.04    0.74
  -5  -3  -3    0.25    0.70
  -5  -3   3   -0.18    0.93
  -5   3  -3    1.14    0.76
  -5   3  -3   -0.20    2.10
  -5  -3   3    0.00    0.86
   5   3   3    1.14    1.62
   5   3   3    1.63    0.92
  -5   3  -3    0.15    2.20
  -5  -3   3    0.46    0.81
  -5   3  -3    1.04    0.90
  -5  -3   3    0.13    1.60
  -5   3  -3    2.46    0.96
   5   3   3   -1.32    1.49
  -5   3  -3    0.19    0.70
  -5   3  -3   -0.95    0.96
  -5  -3   3    1.54    2.44
  -5  -3   3    1.22    1.47
  -5   3   4   57.78    3.11
   5   3  -4   54.44    4.77
  -5   3   4   50.88    3.03
  -5   3   4   55.28    2.99
  -5  -3  -4   59.27    3.04
  -5   3   4   50.44    4.32
  -5  -3  -4   59.21    5.54
   5  -3   4   56.03    4.48
  -5  -3   4   56.64    3.23
  -5   3  -4   47.49    5.44
  -5  -3   4   54.80    3.02
  -5  -3   4   54.50    3.17
   5   3   4   58.53    3.04
  -5   3  -4   58.62    5.59
  -5   3  -4   58.87    3.18
  -5  -3   4   59.28    3.23
  -5  -3   4   55.72    4.46
   5   3   4   50.47    4.78
  -5   3  -4   56.87    3.07
  -5   3  -4   56.83    2.95
  -5   3   5    0.66    0.91
  -5   3   5    0.56    2.66
   5  -3   5    2.47    2.12
   5   3  -5    2.27    2.74
  -5   3   5    0.37    0.95
  -5   3   5    0.25    0.95
  -5   3   5    1.40    0.82
   5  -3   5    1.44    0.94
  -5  -3  -5    0.84    0.82
  -5   3  -5    0.80    0.75
  -5  -3   5    0.36    0.93
  -5  -3   5    2.23    1.19
  -5  -3   5    0.89    1.13
   5   3   5    2.07    0.89
  -5  -3   5   -3.31    2.22
  -5   3  -5    1.32    0.95
  -5   3  -5    1.13    3.15
  -5  -3   5    3.11    1.28
  -5   3   6    3.27    0.94
  -5   3   6    3.56    1.04
  -5   3   6    3.36    1.04
  -5   3   6    3.81    1.06
   5  -3   6    4.58    1.50
  -5  -3  -6    3.27    0.82
   5  -3   6    3.01    0.77
  -5  -3   6    3.48    1.21
  -5   3  -6    2.85    0.86
  -5  -3   6    4.98    1.26
   5   3   6    3.39    0.99
  -5   3  -6    3.68    0.71
  -5  -3   6    3.35    1.15
  -5  -3   6    4.18    0.99
  -5   3   7    8.03    1.35
  -5   3   7    8.90    1.51
  -5  -3  -7    7.06    1.07
  -5  -3  -7    9.48    0.90
   5  -3   7    7.93    0.96
  -5   3   7    8.06    1.07
  -5   3  -7    7.02    0.97
   5   3   7    7.52    1.15
  -5  -3   7    7.87    1.25
  -5  -3   7    9.49    1.54
  -5   3  -7    7.65    1.04
  -5  -3   7    8.58    1.47
  -5   3   8    0.49    0.68
  -5  -3  -8   -0.43    0.45
   5   3  -8    1.92    0.62
   5  -3   8    1.46    0.39
  -5   3   8   -0.03    0.53
   5   3   8    1.55    0.56
  -5   3  -8    0.17    0.33
  -5  -3   8   -0.32    0.64
  -5  -3   8    0.81    0.57
  -5  -3   8    0.17    0.51
  -6   3   0   35.20    4.44
  -6  -3   0   39.06    2.42
  -6  -3   0   39.23    4.57
  -6  -3   0   39.29    2.33
  -6  -3   0   38.11    2.38
  -6   3   0   36.91    2.31
  -6   3   0   35.87    2.39
   6  -3   0   42.62    3.67
  -6   3   0   35.29    2.39
  -6   3   0   34.09    2.46
  -6   3   0   40.31    2.28
   6   3   0   33.69    3.71
  -6  -3   0   38.05    2.21
  -6  -3  -1   33.46    4.36
  -6  -3  -1   24.48    2.05
  -6  -3  -1   25.90    1.94
  -6   3   1   23.76    1.96
  -6   3   1   29.06    2.09
   6   3  -1   19.84    3.42
  -6   3   1   27.99    5.97
   6  -3   1   26.40    3.33
  -6   3   1   27.67    2.04
  -6  -3  -1   30.56    1.98
  -6  -3  -1   25.91    2.08
  -6   3   1   29.21    1.83
  -6   3   1   25.65    1.98
  -6  -3  -1   27.52    2.00
  -6   3  -1   30.63    4.48
  -6   3  -1   28.78    1.85
   6   3   1   25.89    3.15
  -6  -3   1   28.01    2.03
  -6  -3   1   30.80    5.78
   6   3   1   25.30    1.89
  -6   3  -1   26.07    2.06
  -6   3  -1   29.79    2.09
  -6  -3   1   27.08    2.04
  -6  -3   1   28.05    1.95
  -6   3  -1   27.17    1.99
   6   3   1   27.89    3.34
  -6  -3   1   28.29    1.91
  -6  -3  -2    7.79    1.12
   6   3  -2    7.52    2.01
  -6  -3  -2    7.73    1.08
  -6   3   2    8.69    1.42
  -6   3   2    7.46    1.41
  -6   3   2    7.35    1.09
  -6   3   2    4.26    2.42
  -6  -3  -2    6.89    2.52
  -6   3   2    7.51    1.20
   6  -3   2    5.75    1.85
   6   3   2    7.90    2.21
  -6   3  -2    8.38    2.50
  -6  -3   2    8.42    1.21
  -6  -3   2    8.82    2.08
  -6   3  -2    6.82    1.08
  -6  -3   2    5.52    2.85
  -6  -3   2    7.72    1.24
  -6   3  -2    9.02    1.37
  -6   3  -2    6.93    1.19
  -6   3  -2    5.50    1.11
  -6  -3   2    6.78    1.26
   6   3   2    7.65    1.86
   6   3   2    7.12    1.09
  -6   3   3    8.55    2.82
   6  -3   3    8.68    2.70
   6   3  -3    8.83    2.12
  -6  -3  -3    5.05    3.09
  -6  -3  -3    8.46    1.49
  -6   3   3    9.62    1.33
  -6   3   3    9.20    1.51
   6  -3   3    6.48    1.10
  -6  -3  -3    6.55    0.92
  -6   3   3    9.33    1.37
  -6  -3   3    5.50    1.11
  -6  -3   3    8.83    1.22
  -6  -3   3    9.79    1.39
  -6   3  -3    9.48    1.15
  -6  -3   3    3.88    2.04
  -6  -3   3    4.84    3.98
   6   3   3    7.09    1.11
  -6   3  -3    6.97    2.82
  -6   3  -3    7.59    1.20
  -6   3  -3    8.49    1.16
  -6  -3   3    7.39    1.03
   6  -3  -3    9.20    2.96
   6   3   3    6.91    2.63
  -6   3  -3    7.16    1.15
  -6  -3  -4    0.37    0.83
   6  -3   4   -2.13    2.19
  -6   3   4    1.17    1.09
   6   3  -4    3.61    2.66
  -6   3   4   -1.55    0.81
  -6   3   4    0.61    0.96
  -6  -3  -4   -2.42    4.06
  -6   3   4   -1.57    0.71
  -6  -3  -4   -0.40    0.83
   6  -3   4    0.01    0.88
  -6  -3   4    0.23    1.06
   6  -3  -4    0.63    3.59
  -6  -3   4   -0.54    0.86
  -6  -3   4    0.31    1.11
  -6   3  -4   -2.83    4.77
  -6   3  -4   -0.27    0.69
  -6   3  -4    0.51    0.81
  -6   3  -4    0.32    0.89
  -6   3  -4    0.80    1.04
  -6  -3   4   -2.63    1.93
  -6  -3   4   -2.03    0.97
   6   3   4   -0.15    0.89
  -6  -3  -5    3.73    0.89
   6   3  -5    2.68    1.08
   6  -3   5    4.26    0.99
   6   3  -5    8.49    2.83
  -6   3   5    3.97    1.01
  -6   3   5    5.05    0.96
   6  -3   5    3.49    2.66
  -6   3   5    3.12    0.82
  -6  -3   5    3.62    2.91
  -6   3  -5    4.77    1.13
  -6  -3   5    5.72    1.20
  -6  -3   5    3.63    1.06
  -6  -3   5    5.20    1.18
   6   3   5    4.70    1.01
  -6  -3   5    3.27    1.18
  -6   3  -5    4.98    0.75
  -6   3   6    4.29    0.78
   6  -3   6    3.61    0.67
   6   3  -6    5.73    0.98
  -6   3   6    6.77    1.03
  -6  -3  -6    4.77    0.81
  -6   3   6    5.99    0.92
  -6  -3   6    5.20    1.14
  -6  -3   6    3.73    0.87
   6   3   6    5.30    0.88
  -6   3  -6    3.81    0.66
  -6  -3   6    3.98    1.06
  -6   3  -6    4.80    0.89
  -6  -3   6    5.94    0.99
   6   3  -7    0.51    1.03
  -6  -3  -7    1.08    0.49
  -6   3   7   -0.35    0.67
  -6   3   7    1.13    0.62
   6  -3   7    0.86    0.41
   6   3   7    1.10    0.53
  -6   3  -7    1.57    0.51
  -6   3  -7    1.23    0.47
  -6  -3   7    0.81    0.70
  -6  -3   7    1.45    0.59
  -6  -3   7    0.55    0.72
  -7   3   0   -0.27    1.00
  -7   3   0   -0.16    0.82
  -7  -3   0    0.85    2.83
  -7  -3   0    0.88    0.97
  -7   3   0    0.94    0.96
  -7   3   0    0.29    1.03
  -7   3   0    0.59    1.10
  -7  -3   0   -0.04    0.87
   7   3   0   -1.11    0.79
   7   3   0    2.38    3.06
  -7   3   0   -1.31    3.02
   7  -3   0   -1.15    2.32
  -7  -3   0   -0.36    0.85
  -7  -3   0    0.14    1.17
   7  -3   1    5.50    2.16
  -7   3   1    0.39    1.01
  -7  -3  -1   -0.14    0.95
  -7  -3  -1    0.46    0.94
  -7  -3  -1    0.24    0.84
  -7  -3  -1    3.68    2.99
  -7   3   1   -0.03    0.85
  -7   3   1    1.78    2.84
  -7   3   1    0.36    1.08
  -7   3   1   -0.14    0.90
   7   3  -1   -0.19    2.24
  -7   3  -1   -3.77    2.96
  -7  -3   1    0.75    0.92
  -7  -3   1   -0.55    1.15
  -7  -3   1   -0.11    0.83
   7   3   1   -0.32    0.92
  -7  -3   1    6.11    3.03
  -7   3  -1   -0.86    0.91
  -7   3  -1   -0.35    1.00
  -7   3  -1    0.64    1.01
  -7  -3   1   -0.69    0.73
  -7   3  -1    0.11    0.80
   7   3   1   -0.59    2.37
  -7   3   2    4.57    1.18
  -7  -3  -2    4.64    1.08
   7  -3   2    5.17    2.40
  -7  -3  -2    5.50    1.00
  -7   3   2    6.09    1.04
   7   3  -2    5.82    2.60
  -7  -3  -2    3.33    0.90
  -7   3   2    9.84    3.78
  -7  -3  -2    4.92    3.19
  -7   3   2    3.91    0.92
  -7   3   2    3.50    1.09
  -7   3  -2    3.90    1.14
  -7  -3   2    3.23    0.84
  -7   3  -2    4.54    0.99
   7   3   2    3.20    3.05
  -7   3  -2    3.46    1.04
  -7   3  -2    3.23    3.09
  -7  -3   2    6.49    1.09
  -7  -3   2    3.80    4.58
  -7  -3   2    4.15    1.08
  -7  -3   2    6.08    1.37
  -7   3  -2    5.73    1.18
   7  -3   3    3.21    2.55
  -7  -3  -3    1.34    0.86
  -7   3   3    3.04    1.14
   7   3  -3   -3.33    2.62
  -7  -3  -3    1.54    0.93
  -7   3   3    1.89    0.99
   7  -3   3    0.96    0.91
  -7  -3  -3    1.81    3.51
  -7   3   3    1.95    0.90
  -7   3   3    1.72    0.86
   7   3   3    1.32    0.86
  -7   3  -3    1.54    0.99
  -7   3  -3   -4.33    3.23
  -7  -3   3   -0.11    1.17
  -7  -3   3    0.06    2.34
  -7   3  -3    1.11    0.88
  -7  -3   3    0.96    1.14
  -7  -3   3    0.89    0.89
  -7   3  -3    1.10    1.02
  -7  -3  -4    3.87    0.92
  -7   3   4    2.71    0.84
  -7   3   4    4.65    1.07
  -7  -3  -4    2.92    0.85
  -7   3   4    5.63    1.58
  -7  -3   4    2.16    0.99
  -7   3  -4    3.14    0.91
  -7  -3   4    4.32    0.96
   7   3   4    4.54    0.97
  -7   3  -4    2.22    0.97
  -7  -3   4    3.65    1.22
  -7   3   5    2.21    0.84
  -7   3   5    0.87    0.67
  -7   3   5    2.08    0.86
  -7  -3  -5    0.96    0.77
  -7   3  -5    0.62    0.86
  -7  -3   5    1.66    0.93
   7   3   5    0.48    0.75
  -7  -3   5    0.54    0.97
  -7  -3   5    0.41    0.76
  -7  -3  -6    0.90    0.55
  -7   3   6   -0.18    0.81
  -7   3   6    1.07    0.67
   7  -3   6    0.30    0.43
  -7   3   6   -1.22    0.73
   7   3   6   -0.23    0.55
  -7   3  -6    0.61    0.55
  -7  -3   6    0.91    0.68
  -7  -3   6    1.00    0.83
  -7  -3   6    0.90    0.61
   7  -3   7    2.17    0.35
  -7  -3  -7    1.62    0.35
  -7  -3   7    2.02    0.49
  -7   3  -7    2.57    0.47
   7   3   7    1.78    0.40
  -8  -3   0   -2.48    3.97
  -8  -3   0    3.20    0.87
  -8   3   0   -0.04    4.06
  -8   3   0    3.85    1.34
  -8   3   0    2.31    1.11
   8  -3   0   -4.30    2.83
  -8  -3   0    2.41    1.02
   8   3   0    2.61    0.94
  -8   3   0    2.11    0.88
   8   3   0    0.08    3.62
  -8  -3   0    1.80    1.06
  -8   3   0    1.44    0.99
  -8   3   1   -0.26    0.88
   8  -3   1   -0.17    3.04
  -8   3   1   -0.22    0.92
  -8   3   1   -3.10    3.99
   8   3  -1    1.19    0.85
  -8  -3  -1   -0.82    0.84
  -8   3   1    0.50    1.08
  -8  -3  -1    0.35    0.74
  -8   3   1    0.81    1.11
  -8  -3  -1    1.86    3.78
  -8  -3  -1    0.85    0.96
  -8   3  -1   -1.06    0.93
  -8   3  -1    0.20    1.01
  -8  -3   1   -0.25    1.27
  -8  -3   1    0.20    0.85
  -8   3  -1    0.12    1.00
  -8  -3   1    0.70    1.05
  -8  -3   1   -0.90    0.88
  -8  -3   1    1.80    4.30
  -8   3  -1   -5.58    3.78
   8  -3  -1   -1.76    3.57
  -8   3  -1    0.48    0.84
  -8   3   2   11.58    1.83
  -8  -3  -2   14.45    1.74
  -8  -3  -2   10.60    1.51
  -8  -3  -2   13.41    1.56
  -8   3   2   12.75    2.14
   8  -3   2   13.82    1.58
  -8   3   2   11.69    1.46
  -8  -3   2   11.62    1.87
  -8  -3   2   14.28    1.81
  -8   3  -2   12.07    1.63
  -8   3  -2   12.80    1.50
  -8  -3   2   13.68    1.50
  -8   3  -2   10.60    1.62
  -8   3  -2   14.81    1.68
  -8  -3   2   13.96    2.16
  -8  -3  -3   -0.25    0.75
  -8  -3  -3    0.20    0.68
  -8   3   3    0.47    0.97
  -8   3   3    1.14    0.87
  -8   3   3    1.02    0.92
  -8   3  -3   -0.17    0.89
  -8   3  -3    1.83    0.80
  -8  -3   3    0.42    0.93
  -8   3  -3   -0.97    0.76
  -8  -3   3   -0.24    0.70
  -8  -3   3   -1.39    1.02
   8   3   3    0.15    0.78
  -8   3   4   11.08    1.17
  -8   3   4   10.82    1.38
  -8  -3  -4    8.61    1.19
  -8   3   4   10.14    1.35
  -8  -3  -4   12.12    1.15
  -8   3  -4   12.89    1.18
  -8  -3   4   13.73    1.54
  -8  -3   4   11.58    1.88
  -8  -3   4   10.91    1.19
   8   3   4   11.44    1.21
  -8   3  -4   10.28    1.38
  -8   3  -4   11.03    1.30
  -8   3   5    0.76    0.53
   8  -3   5    0.14    0.38
  -8  -3  -5   -0.13    0.50
  -8   3   5   -0.31    0.67
  -8  -3   5    0.42    0.73
  -8   3  -5    0.68    0.57
  -8  -3   5   -0.74    0.52
   8   3   5   -0.24    0.49
  -8  -3   5   -0.25    0.73
   8  -3   6    0.05    0.23
  -8  -3  -6   -0.20    0.31
  -8  -3   6   -0.29    0.41
  -8  -3   6    0.23    0.55
   8   3   6   -0.04    0.47
  -8   3  -6   -0.74    0.35
  -9   3   0    0.05    0.85
  -9   3   0   -0.46    0.82
  -9  -3   0    1.27    0.76
  -9  -3   0   -0.65    0.72
  -9  -3   0   -0.53    0.62
  -9   3   0    0.19    0.70
  -9  -3  -1   -0.96    0.65
  -9   3   1   -0.15    0.84
  -9  -3  -1   -0.37    0.80
  -9  -3  -1    0.25    0.73
  -9   3   1   -0.26    0.66
  -9   3   1    0.76    0.78
  -9  -3   1    0.76    0.68
  -9   3  -1   -0.57    0.76
  -9   3  -1    0.33    0.68
  -9   3  -1    0.46    0.69
  -9  -3   1    0.11    0.66
  -9  -3   1    0.59    0.83
  -9   3  -1    0.15    0.80
  -9   3   2    4.34    0.82
  -9  -3  -2    4.26    0.77
  -9   3   2    4.37    0.81
  -9   3   2    2.28    0.81
   9   3  -2    5.69    0.79
  -9   3  -2    4.06    0.81
  -9  -3   2    2.98    1.05
   9   3   2    2.98    0.80
  -9  -3   2    5.00    0.71
  -9  -3   2    3.23    0.89
  -9   3  -2    3.60    0.71
  -9   3  -2    2.92    0.79
  -9  -3   2    4.46    0.74
   9   3  -3    0.12    0.55
  -9  -3  -3   -0.07    0.56
  -9  -3  -3    0.19    0.73
  -9   3   3    0.55    0.59
  -9   3   3    1.16    0.66
  -9  -3   3    1.26    0.80
  -9   3  -3    0.40    0.57
   9   3   3   -0.33    0.51
  -9  -3   3   -0.16    0.71
  -9   3  -3    1.05    0.59
  -9  -3   3    0.26    0.56
  -9   3  -3   -0.95    0.60
  -9   3   4    2.54    0.47
  -9   3   4    2.17    0.65
   9   3  -4    1.21    0.63
  -9  -3  -4    1.08    0.43
  -9  -3  -4    1.25    0.55
  -9  -3   4    0.74    0.67
   9   3   4    1.77    0.50
  -9   3  -4    0.69    0.82
  -9   3  -4    1.25    0.58
  -9  -3   4    1.34    0.65
  -9  -3   4    2.20    0.60
 -10  -3   0    0.28    0.88
 -10   3   0    0.89    0.60
 -10  -3   0    1.38    0.80
 -10   3   0    2.05    0.60
 -10  -3   0    1.86    0.60
 -10   3   0    0.92    0.44
 -10   3   1    2.30    0.52
 -10   3   1    3.06    0.76
 -10   3   1    3.41    0.66
 -10  -3  -1    3.88    0.72
 -10  -3   1    1.81    0.61
 -10  -3   1    3.73    0.52
 -10   3  -1    4.26    0.74
 -10  -3   1    3.82    0.66
 -10   3  -1    3.29    0.70
  10   3   1    4.44    1.06
 -10  -3  -2    0.48    0.39
 -10   3   2    1.43    0.50
 -10   3   2    0.28    0.40
 -10   3  -2    1.58    0.44
 -10  -3   2    0.99    0.50
  10   3   2    0.31    0.43
 -10   3  -2    1.35    0.52
 -10  -3   2   -0.08    0.45
   0   4   0  849.99   39.59
   0  -4   0  934.20   39.83
   0  -4   0  874.48   40.24
   0  -4   0  873.66   39.28
   0   4   0  908.86   39.70
   0  -4   1    1.29    1.70
   0   4   1   -0.80    0.70
   0   4  -1   -0.50    0.69
   0  -4   1   -0.60    0.61
   0   4   1    0.33    0.68
   0  -4  -1    1.35    1.41
   0  -4   1    0.51    0.51
   0  -4  -1    0.19    0.63
   0   4  -1    0.17    0.70
   0   4   1    0.17    1.32
   0   4  -1   -1.10    1.70
   0   4   2  649.52   31.61
   0  -4  -2  677.99   31.27
   0   4   2  635.03   30.32
   0  -4   2  675.53   30.17
   0  -4   2  650.34   31.81
   0   4   2  694.94   30.44
   0   4  -2  629.04   31.55
   0   4  -2  670.36   30.16
   0  -4   2  712.78   30.44
   0   4  -2  688.55   30.48
   0  -4  -2  720.38   30.41
   0   4  -3   -1.31    1.25
   0  -4   3    9.13    6.20
   0  -4   3   -0.61    0.84
   0   4  -3   -0.93    3.89
   0  -4  -3   -0.39    0.92
   0   4   3   -0.25    0.94
   0  -4   3   -0.62    1.03
   0   4  -3    0.05    1.07
   0   4   4  637.88   28.72
   0   4   4  587.69   27.95
   0  -4   4  653.21   27.98
   0   4   4  631.30   27.93
   0   4   4  611.04   28.01
   0   4  -4  647.44   29.28
   0  -4   4  659.19   28.69
   0   4  -4  597.47   28.52
   0  -4   5    0.59    1.01
   0   4   5    0.88    1.77
   0   4  -5    0.47    2.07
   0   4   5   -0.24    0.84
   0   4   5    1.08    0.79
   0   4  -5    2.05    2.14
   0   4   5    2.72    0.87
   0   4  -5    0.29    0.80
   0   4   5    0.28    0.80
   0  -4   5    1.52    1.54
   0   4   5   -0.23    0.64
   0  -4   5    0.01    0.76
   0  -4  -5   -3.35    2.15
   0  -4  -6   90.94    7.84
   0  -4   6  100.62    5.24
   0  -4   6   97.29    6.61
   0  -4   6  108.54    5.08
   0   4   6  104.32    5.16
   0   4   6  106.08    5.00
   0   4  -6  106.59    7.71
   0   4   6  106.04    5.11
   0   4   6   99.04    6.72
   0   4   6  104.85    5.06
   0   4  -6  105.78    5.03
   0  -4   7   -0.32    2.47
   0   4   7   -3.54    2.79
   0   4   7    0.72    0.93
   0   4   7   -1.33    1.01
   0  -4   7    0.69    1.20
   0  -4   7    0.74    0.77
   0   4  -7    0.99    3.52
   0   4   7   -0.35    0.88
   0  -4  -7    3.75    3.53
   0   4   7   -0.18    0.81
   0   4  -7    0.30    0.79
   0  -4   8   22.58    2.73
   0   4   8   22.63    1.58
   0   4   8   22.79    1.94
   0   4   8   22.88    1.81
   0   4  -8   20.48    1.53
   0   4  -9    1.14    0.50
   0   4   9   -0.63    0.40
   0  -4   9   -0.39    0.39
   0   4   9   -0.15    0.63
   0   4  -9    0.48    0.48
   0   4   9   -0.11    0.47
   1   4   0   -0.38    0.64
  -1   4   0    0.41    0.57
   1   4   0   -0.08    0.59
  -1   4   0    0.14    0.68
  -1  -4   0    0.60    0.75
   1  -4   0    0.94    0.63
  -1  -4   0   -0.15    0.33
  -1   4   0   -0.58    1.30
   1  -4   0    0.32    1.32
  -1  -4   0    1.44    1.72
   1   4   0    0.30    1.44
  -1   4   1  135.53    6.80
   1  -4   1  133.18    6.34
   1   4  -1  133.89    7.83
   1   4  -1  137.00    6.45
   1   4  -1  139.28    6.47
  -1  -4  -1  143.08    7.69
  -1  -4  -1  137.67    6.72
  -1   4   1  143.01    6.63
   1  -4   1  120.42    7.57
  -1   4   1  131.51    6.39
  -1  -4   1  137.73    6.71
  -1  -4   1  135.87    6.22
  -1  -4   1  134.24    7.83
   1   4   1  121.91    7.31
   1  -4  -1  114.74    6.15
  -1   4  -1  131.30    6.20
   1   4   1  129.69    6.53
   1   4   1  143.29    6.53
  -1   4  -1  131.13    6.60
   1  -4  -1  133.84    6.78
   1   4  -2    1.43    0.78
   1   4  -2   -0.05    0.87
   1  -4   2    0.55    3.96
  -1  -4  -2    0.62    0.86
  -1   4   2    0.94    0.60
  -1  -4  -2    5.18    3.20
   1   4  -2    1.24    3.00
   1  -4   2    0.45    0.79
  -1   4   2    0.65    1.30
  -1   4   2   -0.10    0.82
  -1   4   2   -1.34    0.81
   1  -4  -2   -2.85    1.83
  -1   4  -2    1.85    2.37
  -1   4  -2    1.28    1.07
  -1  -4   2    3.51    2.66
  -1  -4   2    0.54    0.60
   1   4   2    0.18    0.81
   1   4   2   -0.57    0.83
  -1  -4   2    0.73    1.01
  -1   4  -2   -0.13    0.79
   1   4  -3  432.92   19.06
   1   4  -3  417.96   19.23
  -1  -4  -3  373.36   19.11
  -1   4   3  389.59   18.58
   1  -4   3  438.22   19.06
  -1   4   3  444.98   19.13
  -1   4   3  390.54   19.23
   1  -4   3  365.57   21.62
   1   4  -3  401.74   21.66
  -1  -4   3  429.79   18.92
   1  -4  -3  443.13   18.94
  -1  -4   3  379.67   21.96
  -1  -4   3  425.26   19.26
  -1   4  -3  449.95   19.64
  -1   4  -3  396.05   18.69
   1   4   3  425.58   19.09
  -1   4   4   12.57    1.78
   1   4  -4   13.00    2.37
  -1   4   4   10.33    1.30
   1  -4   4   11.79    1.85
  -1   4   4    9.45    1.31
   1  -4   4   10.91    1.28
  -1  -4  -4   10.72    2.44
  -1   4   4   14.41    2.33
   1   4  -4    8.37    2.13
  -1  -4  -4    8.67    2.27
  -1   4   4   10.11    1.11
   1   4   4   11.32    1.78
   1   4   4    9.62    1.69
   1   4   4   12.00    1.35
   1   4   4   10.48    1.22
   1   4   4    9.64    1.21
  -1  -4   4   10.44    1.54
  -1  -4   4    9.85    1.66
  -1   4  -4    8.11    1.29
  -1   4  -4    9.63    2.21
   1  -4   5  122.91    5.78
   1   4  -5  128.97    7.69
  -1   4   5  114.69    5.78
  -1   4   5  129.12    5.87
   1  -4   5  119.09    6.84
   1   4  -5  113.55    7.05
  -1   4   5  121.98    5.85
  -1   4   5  122.89    5.83
   1   4  -5  120.65    5.80
  -1   4   5  123.81    5.74
  -1   4   5  119.55    6.96
  -1  -4   5  117.70    6.01
   1   4   5  116.09    5.84
   1   4   5  124.41    6.85
   1   4   5  121.62    5.85
   1   4   5  123.97    5.75
  -1   4  -5  130.04    8.05
  -1  -4   5  123.18    5.96
  -1  -4   5  104.50    6.11
  -1  -4   5  127.38    5.79
   1   4   5  123.32    5.72
  -1  -4   5  127.43    7.02
  -1   4  -5  124.17    5.78
  -1   4   6    7.03    1.00
  -1   4   6    6.41    1.07
  -1   4   6    7.76    1.19
   1   4  -6    5.53    1.00
  -1   4   6    7.52    1.23
   1  -4   6    4.79    1.69
   1   4  -6    8.50    3.21
   1  -4   6    4.42    0.95
   1   4  -6   14.22    2.99
  -1   4  -6    6.31    1.07
   1   4   6    6.03    1.04
  -1  -4   6    7.28    1.37
  -1  -4   6    4.69    0.98
  -1  -4   6    8.16    1.25
   1   4   6    5.71    0.98
   1   4   6    6.64    1.12
   1   4   6    6.99    1.02
  -1  -4   6    9.02    1.40
   1   4   6    6.67    3.18
   1  -4   7   31.37    3.71
  -1  -4  -7   42.00    6.53
  -1   4   7   31.29    2.35
   1  -4   7   31.88    2.06
  -1   4   7   31.39    2.31
   1   4  -7   30.37    2.03
  -1  -4  -7   29.57    2.09
   1  -4   7   33.33    2.38
   1   4  -7   22.69    5.42
  -1   4   7   28.86    1.98
   1   4   7   32.85    2.06
  -1  -4   7   27.96    2.46
   1   4   7   33.12    2.32
   1   4   7   29.48    2.10
  -1  -4   7   30.77    2.10
  -1   4  -7   32.33    2.07
  -1   4  -7   35.62    6.42
   1   4   7   32.29    2.17
   1   4   7   39.96    5.06
  -1  -4   7   26.04    3.59
  -1   4   8    2.17    0.80
  -1   4   8    1.53    0.99
   1   4  -8    1.68    0.66
  -1   4   8    2.45    0.79
   1  -4   8    2.20    0.66
  -1   4  -8    0.92    0.64
   1   4   8    2.60    0.78
  -1   4  -8    3.02    1.07
   1   4   8    2.40    0.71
  -1  -4   8    3.28    0.82
   1   4   8    2.55    0.88
  -1  -4   8    0.12    1.03
  -1   4   9   12.45    1.07
   1   4  -9   11.88    0.96
  -1   4   9   14.17    1.28
  -1   4   9   13.82    0.91
   1   4   9   10.81    1.52
   1   4   9   11.76    1.21
   1   4   9   12.52    0.99
  -1   4  -9   12.14    0.82
  -1  -4   9   12.95    0.98
  -2  -4   0  219.18   11.78
   2   4   0  234.68   10.43
   2  -4   0  216.41   10.43
  -2   4   0  226.88   10.75
  -2   4   0  224.99   10.68
   2  -4   0  227.94   11.67
  -2   4   0  230.18   10.17
   2  -4   0  220.27   10.92
  -2  -4   0  220.35   10.94
  -2  -4   0  230.53   10.19
   2   4   0  226.52   10.57
  -2  -4  -1    2.57    1.07
   2  -4   1    1.65    0.80
  -2   4   1    2.33    0.84
  -2   4   1    2.19    0.83
   2  -4   1    1.63    2.64
   2   4  -1    5.13    2.88
   2   4  -1    3.22    0.79
  -2  -4  -1    2.88    2.35
  -2   4   1    2.32    0.72
   2  -4   1    5.50    2.59
   2   4  -1    1.84    0.84
   2   4   1    2.52    2.46
  -2  -4   1    2.75    0.60
   2   4   1    1.99    0.90
  -2   4  -1    2.79    1.02
   2   4   1    2.01    0.85
   2   4   1    1.58    0.57
  -2  -4   1    2.13    2.20
  -2  -4   1    1.37    1.09
  -2   4  -1    2.03    0.91
  -2   4   2  720.10   32.92
  -2   4   2  731.56   33.11
  -2  -4  -2  776.51   35.50
  -2  -4  -2  669.88   33.57
   2  -4   2  748.34   35.43
   2   4  -2  764.71   33.13
   2  -4   2  723.25   33.22
  -2   4   2  772.96   33.38
   2  -4   2  687.26   35.89
   2   4  -2  646.42   36.22
   2   4  -2  774.18   33.30
  -2  -4   2  742.68   35.01
  -2   4  -2  772.03   33.63
  -2   4  -2  777.35   33.49
  -2  -4   2  700.90   33.62
   2   4   2  770.76   33.31
  -2  -4   2  758.35   33.04
   2   4  -3    0.41    1.22
  -2  -4  -3   -1.75    1.19
   2   4  -3   -0.66    1.19
  -2   4   3    0.22    1.20
  -2   4   3    0.92    0.85
   2  -4   3    0.58    1.15
  -2  -4   3    1.75    0.88
   2   4   3    0.32    1.02
  -2   4  -3   -1.63    1.42
  -2  -4   3   -2.27    1.50
  -2   4   4  303.41   14.07
  -2   4   4  322.76   15.01
  -2   4   4  318.33   14.12
   2  -4   4  314.03   14.89
  -2   4   4  311.22   14.16
   2   4  -4  330.30   15.03
  -2   4   4  286.33   14.45
  -2   4   4  314.92   14.02
   2  -4   4  318.65   14.05
  -2  -4  -4  265.01   14.91
  -2   4  -4  297.78   14.06
   2   4   4  331.14   14.14
  -2  -4   4  304.82   14.71
  -2   4  -4  325.10   15.69
  -2   4  -4  318.19   14.14
  -2  -4   4  297.99   14.27
   2   4   4  307.63   14.04
   2   4   4  323.99   14.87
   2   4   4  307.07   14.04
   2   4   4  324.39   14.17
  -2  -4   4  317.10   14.18
  -2  -4   4  320.99   14.04
   2  -4   5    5.89    2.05
  -2   4   5    7.40    1.03
  -2   4   5    4.58    0.94
  -2  -4  -5    4.01    2.52
   2   4  -5    9.69    2.31
  -2   4   5    7.20    0.92
   2  -4   5    5.00    0.89
   2   4  -5    3.49    2.84
  -2   4   5    5.13    2.13
  -2   4   5    7.31    1.09
   2   4   5    7.59    1.28
   2   4   5    7.73    1.18
   2   4   5    8.22    1.17
  -2  -4   5    4.97    1.22
  -2  -4   5    4.73    1.81
   2   4   5    6.24    0.91
  -2   4  -5    7.20    2.54
  -2   4  -5    5.84    1.02
   2  -4  -5    3.46    2.87
   2   4   5    3.97    1.94
  -2  -4   5    6.55    1.18
  -2  -4   5    7.39    1.40
  -2  -4   5    5.24    0.88
  -2  -4  -6   91.29    7.31
  -2   4   6   89.32    4.51
   2  -4   6   95.99    6.09
  -2   4   6   90.41    4.56
  -2   4   6   72.55    6.49
   2   4  -6   81.07    6.86
  -2   4   6   82.80    4.32
  -2   4   6   87.62    4.54
   2  -4   6   89.91    4.40
  -2   4  -6   92.51    4.44
  -2   4  -6   86.19    6.82
  -2  -4   6   88.18    4.67
  -2  -4   6   97.54    4.58
  -2  -4   6   86.46    4.67
   2   4   6   94.96    4.39
  -2  -4   6   86.46    5.93
   2  -4  -6   75.80    7.96
  -2  -4   6   87.13    4.43
   2   4   6   86.02    5.84
   2   4   6   90.94    4.55
   2   4   6   90.03    4.37
   2   4   6   93.60    4.42
  -2   4   7    4.60    3.20
  -2  -4  -7    3.45    0.83
  -2   4   7    2.27    1.06
   2  -4   7    1.93    2.66
   2  -4   7    1.42    0.83
  -2   4   7    1.64    1.10
  -2  -4  -7   -0.77    2.94
  -2   4   7    2.52    0.78
  -2   4   7    1.77    1.03
  -2  -4   7    3.08    1.03
  -2  -4   7    0.65    1.07
   2   4   7    1.23    0.83
  -2  -4   7    2.43    1.01
   2   4   7    0.78    0.91
   2   4   7    8.20    3.72
  -2   4  -7   10.23    4.09
  -2  -4   7   -1.35    2.91
   2   4   7    1.32    0.79
  -2   4  -7    2.42    0.91
   2  -4  -7    1.65    6.52
  -2   4  -7   -0.27    1.19
   2  -4   8   25.69    1.63
  -2   4   8   29.35    1.88
  -2   4   8   24.41    1.94
  -2   4   8   26.78    1.83
   2   4   8   30.83    1.90
  -2   4  -8   26.59    1.66
   2   4   8   25.75    1.62
  -2  -4   8   23.88    1.73
   2   4   8   27.92    1.77
  -2  -4   8   28.25    2.28
  -2   4   9    0.96    0.67
   2  -4   9   -0.02    0.29
  -2  -4  -9   -0.38    0.29
  -2   4   9    1.23    0.46
   2   4  -9    1.10    0.59
  -2   4   9    0.19    0.40
  -2   4  -9   -0.26    0.33
  -2  -4   9   -0.11    0.34
   2   4   9   -0.12    0.41
   3  -4   0   -2.35    1.71
  -3  -4   0    0.99    1.08
   3  -4   0    0.00    0.83
  -3   4   0   -0.69    0.88
   3   4   0    1.11    0.96
  -3   4   0    0.07    0.93
  -3  -4   0    0.04    0.65
  -3  -4   0    1.66    3.20
   3   4  -1  284.32   13.13
  -3   4   1  289.19   13.37
  -3   4   1  280.75   13.17
  -3  -4  -1  243.26   13.56
   3  -4   1  287.82   13.10
  -3   4   1  294.19   12.81
   3   4  -1  262.93   15.20
  -3  -4  -1  291.24   16.21
   3   4   1  293.37   13.15
  -3   4  -1  283.09   13.35
  -3  -4   1  252.85   13.63
  -3  -4   1  292.38   15.52
  -3  -4   1  277.59   12.81
  -3   4  -1  283.09   13.48
   3  -4   2   19.29    2.06
  -3  -4  -2   15.19    2.75
  -3   4   2   20.44    2.03
  -3   4   2   16.85    2.26
  -3  -4  -2   17.29    2.73
  -3   4   2   16.14    2.03
   3   4  -2   17.42    2.94
  -3   4   2   15.54    1.73
  -3   4  -2   19.44    2.49
   3   4   2   19.06    1.81
  -3  -4   2   17.02    2.82
  -3  -4   2   20.85    1.77
  -3   4  -2   18.57    2.93
  -3   4   3  248.81   12.02
  -3   4   3  254.75   11.90
   3   4  -3  276.99   12.40
  -3  -4  -3  216.23   13.13
  -3  -4  -3  238.73   12.59
  -3   4  -3  249.26   11.43
  -3   4  -3  265.92   12.46
  -3  -4   3  255.48   11.54
  -3  -4   3  216.93   12.52
   3   4   3  242.40   11.44
  -3  -4   3  247.68   11.56
   3   4   3  273.47   11.73
  -3  -4   3  274.30   12.03
  -3   4  -3  228.41   11.68
   3   4   3  275.02   12.22
  -3   4  -3  274.61   12.95
  -3   4   4    0.47    0.79
  -3  -4  -4   -1.91    2.04
   3   4  -4    2.05    1.91
  -3   4   4   -1.72    1.47
  -3   4   4    2.71    1.63
  -3   4   4   -0.17    0.73
  -3  -4  -4   -0.10    2.91
   3  -4   4   -0.76    1.42
  -3   4   4    1.63    0.77
  -3   4   4    0.69    0.97
  -3   4  -4    2.12    2.25
  -3   4  -4    0.66    0.98
  -3  -4   4    0.42    1.05
  -3   4  -4    0.66    0.96
  -3   4  -4   -1.01    0.62
   3   4   4   -0.41    0.78
  -3  -4   4   -1.74    1.04
  -3  -4   4    1.34    1.32
  -3  -4   4    1.15    1.31
   3   4   4   -0.67    1.47
   3   4   4   -0.65    0.64
  -3  -4   4    0.46    0.74
   3   4   4   -0.52    0.69
  -3   4   5  156.32    7.54
   3  -4   5  167.95    7.43
  -3   4   5  140.78    8.93
   3   4  -5  163.36    9.02
  -3   4   5  149.83    7.70
  -3  -4  -5  164.98    9.83
   3  -4   5  160.45    8.64
  -3   4   5  161.44    7.52
  -3   4   5  167.28    7.56
  -3  -4   5  166.53    7.62
   3   4   5  158.34    7.40
  -3  -4   5  159.86    7.45
  -3  -4   5  152.21    8.58
  -3   4  -5  167.07    7.47
  -3  -4   5  158.37    7.72
  -3   4  -5  154.66    9.53
   3   4   5  154.66    8.59
   3   4   5  162.64    7.49
   3   4   5  165.04    7.41
  -3   4   6    1.07    1.00
   3  -4   6   -0.48    0.76
  -3  -4  -6   -0.69    3.08
  -3   4   6    2.86    3.04
   3  -4   6   -3.92    2.05
   3   4  -6   -4.31    3.11
  -3   4   6   -0.07    0.75
  -3   4   6    0.49    1.04
  -3   4   6   -0.42    0.95
  -3  -4  -6   -0.90    0.87
  -3  -4   6    0.30    1.19
  -3  -4   6   -0.36    0.97
  -3  -4   6   -4.67    2.26
   3   4   6    0.68    0.90
  -3   4  -6   -3.29    3.11
   3   4   6    1.71    2.96
   3  -4  -6   -6.37    4.51
  -3   4  -6    0.06    0.97
   3   4   6   -0.30    0.71
  -3   4  -6   -1.32    0.75
  -3  -4   6   -0.35    1.15
  -3  -4   6   -0.09    0.96
  -3   4   7   19.43    1.96
  -3   4   7   19.48    1.44
  -3   4   7   17.85    1.94
   3  -4   7   17.76    1.50
  -3  -4   7   14.70    1.77
  -3   4  -7   17.73    1.57
   3   4   7   18.24    1.66
  -3  -4   7   27.41    3.05
  -3  -4   7   18.27    1.69
   3   4   7   20.16    1.47
   3  -4   8    0.39    0.49
  -3  -4  -8   -0.71    0.53
  -3   4   8   -0.27    0.71
  -3   4   8    0.20    0.71
  -3   4   8    0.50    0.76
   3   4   8   -0.58    0.70
   3   4   8   -0.38    0.65
  -3   4  -8   -0.79    0.45
  -3  -4   8   -1.21    0.66
  -3  -4   8    0.32    0.77
  -3  -4   8    0.00    0.63
  -4   4   0  239.50   11.44
  -4  -4   0  211.67   12.03
  -4   4   0  240.10   11.92
   4   4   0  250.47   11.38
  -4   4   1    2.16    1.49
   4  -4   1    1.27    1.16
   4   4  -1    1.68    1.27
  -4   4   1    2.15    1.17
  -4  -4  -1    3.04    1.45
  -4   4  -1    0.89    1.35
  -4   4  -1    1.71    2.27
  -4  -4   1    1.60    0.87
   4   4   1    0.90    1.23
  -4  -4   1    1.28    1.69
  -4  -4  -2  138.38    8.20
   4  -4   2  154.32    7.54
  -4  -4  -2  141.25    9.17
  -4   4   2  147.97    7.68
  -4  -4  -2  128.35    6.88
   4   4  -2  156.54    7.68
  -4   4  -2  146.78    7.99
  -4  -4   2  150.96    7.30
  -4   4  -2  153.82    8.10
  -4   4  -2  139.82    6.84
   4   4   2  133.55    7.26
  -4  -4   2  137.41    8.25
  -4   4  -2  151.13    6.86
  -4   4  -2  143.21    6.88
   4   4   2  154.66    7.57
  -4   4  -2  148.75    6.75
  -4  -4   2  149.57    6.82
   4   4   2  140.41    6.74
  -4  -4   2  145.17    6.83
  -4   4   3    1.67    0.99
   4  -4   3    0.88    1.43
  -4  -4  -3    1.62    2.01
  -4   4   3   -0.41    1.11
   4   4  -3    3.26    1.80
  -4   4   3    1.07    0.87
  -4   4   3    1.07    1.38
  -4   4   3    2.86    0.95
  -4  -4  -3    0.66    0.98
  -4  -4  -3    2.75    2.09
  -4  -4   3    2.09    1.32
  -4   4  -3    3.77    1.82
  -4  -4   3    3.29    2.17
  -4  -4   3    1.46    1.05
  -4   4  -3   -0.23    0.73
  -4   4  -3    0.31    0.81
  -4  -4   3    2.00    0.78
  -4  -4   3    1.74    0.99
  -4   4  -3    0.59    0.89
   4   4   3    1.85    0.73
  -4   4  -3    2.13    0.96
   4   4   3    1.44    1.35
  -4  -4   3    1.71    0.75
  -4   4  -3    0.65    1.86
   4   4   3    3.46    0.81
  -4   4   4  194.28    9.74
  -4   4   4  206.84    9.61
  -4   4   4  193.60   10.41
  -4  -4  -4  236.70   11.53
  -4   4   4  197.81    9.70
   4   4  -4  214.71   11.01
   4  -4   4  219.93   10.70
  -4  -4  -4  226.12   11.49
  -4   4   4  209.03    9.65
   4   4   4  203.04    9.54
   4   4   4  214.70   10.68
  -4  -4   4  202.29   10.57
  -4   4  -4  217.48   11.73
  -4   4  -4  211.65    9.60
   4   4   4  198.63    9.84
  -4  -4   4  221.19   10.38
   4   4   4  210.63    9.56
  -4  -4   4  212.67    9.58
  -4   4  -4  206.34    9.67
  -4   4  -4  213.10    9.67
  -4  -4   4  195.11    9.96
  -4  -4   4  208.87    9.98
  -4  -4  -5   11.41    1.56
  -4   4   5   14.18    1.79
  -4   4   5   11.40    1.67
  -4   4   5   10.68    1.62
   4   4  -5    8.09    2.58
   4  -4   5   11.82    1.34
   4  -4   5   11.29    2.52
  -4   4   5   10.34    1.77
  -4  -4   5   12.92    1.79
  -4   4  -5   12.97    1.35
  -4  -4   5   10.90    1.60
   4   4   5   10.66    1.39
  -4  -4   5   12.17    2.36
   4  -4  -5    6.74    5.87
   4   4   5   12.44    1.42
  -4  -4   5    8.33    1.39
  -4   4  -5   12.68    3.38
  -4  -4   5    9.83    1.43
  -4   4  -5   10.04    1.64
   4   4  -6   33.34    5.94
  -4  -4  -6   44.11    2.51
  -4   4   6   44.05    2.76
  -4  -4  -6   36.90    7.04
  -4   4   6   42.87    2.73
  -4   4   6   42.53    2.73
   4  -4   6   45.46    2.46
   4  -4   6   40.40    4.87
   4   4   6   45.81    2.60
   4   4   6   43.82    2.39
  -4  -4   6   42.30    2.58
  -4   4  -6   41.96    2.52
  -4  -4   6   45.99    2.80
   4   4   6   41.00    5.84
  -4   4  -6   49.68    6.75
  -4  -4   6   42.50    2.97
  -4   4  -6   46.58    2.54
  -4  -4   6   30.70    5.21
  -4  -4   6   44.43    2.92
   4  -4   7    0.70    0.61
  -4   4   7    3.38    0.99
  -4  -4  -7    1.97    0.72
  -4   4   7    1.71    0.92
  -4   4   7    1.53    0.88
  -4  -4   7    1.69    0.95
  -4  -4   7    2.35    0.93
  -4  -4   7    2.23    0.88
   4   4   7    3.17    0.83
  -4   4  -7    1.49    0.68
   4   4   7    2.18    0.76
   4   4  -8   15.64    1.33
  -4   4   8   14.30    1.21
  -4  -4  -8   16.21    1.09
  -4   4   8   16.86    1.32
  -4   4   8   16.55    1.24
   4  -4   8   15.44    1.04
  -4  -4   8   13.91    1.35
   4   4   8   16.33    1.16
  -4   4  -8   16.31    1.07
  -4  -4   8   18.09    1.17
  -5  -4   0    0.01    1.89
  -5   4   0    2.44    1.50
  -5  -4   0    0.69    1.05
   5   4   0   -0.37    1.45
  -5   4   0   -0.95    0.68
  -5   4   0   -0.38    0.84
  -5   4   0   -0.42    0.84
   5  -4   0    1.03    1.47
  -5   4   0    0.10    1.99
  -5   4   0    1.16    0.76
  -5  -4   0    0.11    0.83
  -5  -4   0   -0.75    0.88
  -5   4   1  186.21    8.67
  -5   4   1  176.48    8.55
  -5  -4  -1  177.86    8.63
   5   4  -1  186.94    9.52
  -5   4   1  187.35    8.49
  -5  -4  -1  194.57   10.35
  -5  -4  -1  178.33    8.61
   5  -4   1  198.23    9.48
  -5   4   1  174.65    8.47
  -5   4   1  184.71   10.05
  -5  -4  -1  179.98    8.50
  -5   4   1  168.33    9.26
  -5   4  -1  189.53    8.53
  -5  -4   1  199.59   10.57
   5   4   1  188.75    9.41
  -5   4  -1  183.56    9.69
  -5   4  -1  175.31    8.61
  -5   4  -1  192.44    8.50
  -5  -4   1  188.03    9.11
  -5   4  -1  177.98   10.12
  -5  -4   1  184.87    8.56
  -5   4  -1  189.38    8.61
  -5  -4   1  180.82    8.64
  -5  -4   1  191.83    8.49
  -5  -4   1  194.03    8.64
   5   4   1  182.31    8.48
   5   4   1  186.32    9.05
  -5  -4  -2    5.20    0.95
  -5   4   2    4.68    0.89
  -5  -4  -2    3.57    0.97
  -5   4   2    5.09    0.93
   5  -4   2    3.30    1.50
  -5   4   2    3.54    1.13
  -5   4   2    4.47    1.01
  -5   4   2    4.20    1.86
   5   4  -2    6.12    1.89
  -5  -4  -2    1.72    2.03
  -5   4  -2    3.15    0.83
  -5   4  -2    5.09    1.01
  -5  -4   2    5.21    0.92
  -5   4  -2    2.90    0.93
  -5   4  -2    6.01    2.28
   5   4   2    6.75    1.59
   5   4   2    4.36    1.57
  -5  -4   2    4.16    1.06
  -5   4  -2    4.21    0.97
  -5  -4   2    4.15    0.95
  -5   4  -2    3.52    0.83
  -5  -4   2    5.42    0.87
  -5   4  -2    4.48    2.22
   5   4   2    4.24    0.86
  -5  -4   2    4.91    2.33
  -5  -4   2    4.36    1.65
  -5  -4   2    2.89    1.08
  -5   4   3  243.40   10.56
   5   4  -3  207.44   10.50
   5  -4   3  232.43   11.61
  -5   4   3  220.17   10.45
  -5  -4  -3  237.65   12.38
  -5  -4  -3  233.85   10.57
   5   4  -3  226.82   11.75
  -5   4   3  222.29   10.65
  -5  -4   3  254.66   11.02
   5   4   3  196.31   12.02
   5   4   3  229.98   10.45
  -5  -4   3  221.23   11.34
  -5   4  -3  236.11   12.20
  -5  -4   3  226.92   10.63
  -5  -4   3  237.69   10.47
  -5   4  -3  229.41   10.58
  -5  -4   3  240.20   10.95
  -5   4  -3  236.61   10.48
  -5   4  -3  235.07   10.53
  -5  -4   3  228.88   12.35
  -5   4  -3  218.51   12.19
  -5  -4  -4   -0.09    0.90
   5   4  -4    0.02    3.62
  -5  -4  -4    0.33    1.00
  -5   4   4    0.85    0.85
  -5   4   4   -0.32    0.92
  -5  -4  -4    5.60    3.54
  -5   4   4   -0.06    0.74
  -5  -4   4   -0.62    1.06
  -5  -4   4   -1.00    1.12
  -5   4  -4    0.01    0.85
  -5   4  -4    2.50    3.09
  -5   4  -4   -0.77    0.73
  -5   4  -4    3.38    3.04
  -5  -4   4    0.22    0.85
  -5   4  -4    1.01    0.96
  -5  -4   4   -0.42    0.92
   5   4   4    0.89    0.78
  -5   4  -4    1.29    0.96
   5   4   4    1.90    2.15
   5   4   4   -0.40    0.80
  -5   4   5   69.69    3.73
   5   4  -5   68.06    6.25
  -5  -4  -5   70.68    3.59
  -5   4   5   67.14    3.56
  -5   4   5   68.60    3.74
   5  -4   5   68.25    5.32
  -5   4   5   67.43    3.68
  -5  -4   5   70.36    3.64
   5   4   5   70.13    3.62
  -5  -4   5   72.71    4.00
  -5  -4   5   68.27    5.67
  -5   4  -5   63.40    7.14
  -5  -4   5   70.49    3.88
   5   4   5   67.74    6.70
  -5  -4   5   77.23    3.87
  -5   4  -5   71.76    3.69
  -5   4  -5   70.87    3.55
  -5   4  -5   71.57    3.73
   5   4   5   69.71    3.52
  -5   4   6    4.74    1.01
  -5  -4  -6    4.39    1.12
  -5   4   6    4.62    1.03
   5  -4   6    4.94    0.89
  -5   4   6    5.82    1.30
  -5   4  -6    3.73    0.91
  -5  -4   6    5.08    1.05
  -5  -4   6    4.16    1.29
  -5  -4   6    6.59    1.27
   5   4   6    4.41    0.84
  -5  -4  -7   32.06    1.82
   5   4  -7   30.72    1.97
   5  -4   7   30.92    1.70
  -5   4   7   32.11    1.94
  -5  -4  -7   27.48    1.63
  -5   4   7   30.68    2.00
  -5   4   7   30.77    1.89
  -5  -4   7   32.34    2.07
   5   4   7   30.82    1.80
  -5  -4   7   32.28    1.87
  -5   4  -7   31.31    1.73
  -5  -4   7   30.88    2.05
  -5   4  -7   28.18    1.74
  -5  -4  -8    0.53    0.34
   5   4  -8   -0.90    0.57
  -5   4   8    1.28    0.56
  -5   4   8    0.32    0.46
   5  -4   8    0.83    0.33
  -5   4  -8    0.38    0.31
   5   4   8    0.52    0.37
  -5  -4   8    0.83    0.42
  -6   4   0   61.44    3.94
  -6   4   0   68.07    4.09
  -6   4   0   65.73    5.98
  -6  -4   0   74.35    3.64
  -6   4   0   68.43    3.69
  -6  -4   0   83.95    5.98
   6   4   0   72.81    5.03
  -6  -4   0   71.29    3.70
   6  -4   0   68.20    5.16
  -6  -4   0   69.81    3.89
  -6   4   1   12.73    2.97
  -6  -4  -1   14.58    2.99
  -6   4   1   14.10    1.53
   6  -4   1   13.09    2.58
  -6   4   1   15.04    1.59
  -6   4   1   13.73    1.81
   6   4  -1   18.96    3.41
  -6  -4  -1   11.22    1.54
  -6  -4  -1   12.63    1.72
  -6   4   1   15.00    1.66
  -6  -4  -1   15.42    1.66
  -6  -4   1   15.14    1.40
  -6   4  -1   14.28    3.38
  -6   4  -1   13.00    1.41
  -6   4  -1   15.25    1.82
   6   4   1   14.91    2.21
  -6   4  -1   13.22    1.78
   6   4   1   11.99    2.40
  -6  -4   1   18.41    3.37
  -6  -4   1   15.34    1.69
  -6   4  -1   15.36    1.69
  -6  -4   1   13.64    1.79
  -6  -4   1   14.34    1.63
  -6  -4  -2   98.65    7.03
  -6   4   2   89.77    4.66
   6   4  -2   90.43    6.18
  -6   4   2   96.27    4.64
  -6   4   2   92.10    4.70
  -6  -4  -2   89.86    4.56
  -6  -4  -2   98.90    4.75
   6  -4   2   95.90    6.10
  -6   4   2   85.77    6.66
  -6   4   2   92.68    4.88
  -6   4  -2   96.58    4.77
  -6   4  -2  100.38    4.67
  -6  -4   2   92.93    4.60
   6   4   2   92.59    4.59
  -6   4  -2   97.14    4.78
  -6  -4   2   94.37    4.75
   6   4   2   96.87    6.17
  -6  -4   2  104.53    7.60
  -6  -4   2   90.09    5.84
  -6  -4   2   97.19    4.81
  -6   4  -2  104.12    6.99
  -6  -4   2   90.85    4.81
  -6   4  -2   92.95    4.74
  -6   4   3    0.80    0.85
  -6  -4  -3    0.82    0.73
   6   4  -3    0.15    2.18
  -6  -4  -3   -1.26    3.04
  -6   4   3   -1.12    0.82
  -6  -4  -3    0.91    0.96
  -6   4   3    0.92    0.98
  -6   4   3   -0.63    1.12
   6  -4   3    4.80    2.29
  -6   4  -3    1.06    1.08
  -6   4  -3   -0.53    0.74
  -6  -4   3    0.92    0.93
  -6  -4   3    0.57    0.81
   6   4   3    0.41    0.78
  -6  -4   3   -0.61    1.15
   6   4   3   -2.58    2.78
  -6   4  -3    3.46    2.88
   6   4   3    0.46    0.80
  -6  -4   3    0.04    2.05
  -6  -4   3    0.16    0.96
  -6   4  -3    0.58    0.85
  -6   4  -3    0.02    0.90
  -6  -4  -4   50.99    7.68
  -6   4   4   59.70    3.26
  -6  -4  -4   61.37    3.13
   6   4  -4   52.37    5.69
  -6  -4  -4   61.51    3.14
  -6   4   4   60.48    3.43
  -6   4   4   56.76    3.14
   6  -4   4   53.62    5.13
  -6   4   4   55.08    3.11
  -6  -4   4   60.80    3.39
  -6  -4   4   61.58    3.44
  -6  -4   4   49.68    5.32
  -6   4  -4   54.66    3.02
  -6   4  -4   57.71    3.20
   6   4   4   60.52    3.19
  -6   4  -4   58.79    3.13
  -6   4  -4   72.91    7.60
   6   4   4   55.55    3.09
  -6   4  -4   62.63    3.37
  -6  -4   4   59.68    3.19
  -6  -4   4   60.57    3.47
   6   4  -5    4.59    1.04
  -6   4   5    1.77    1.17
  -6   4   5    2.30    0.74
  -6  -4  -5    2.04    0.86
  -6   4  -5    1.33    0.93
   6   4   5    2.41    0.83
  -6  -4   5    2.15    0.99
  -6  -4   5    1.00    1.05
  -6  -4   5    0.19    1.13
  -6  -4   5    2.20    0.89
  -6  -4  -6   28.78    1.80
  -6   4   6   28.28    1.87
   6   4  -6   27.93    2.17
   6  -4   6   25.30    1.62
  -6   4   6   28.42    1.76
  -6  -4   6   29.41    1.95
  -6  -4   6   27.19    1.79
  -6   4  -6   29.56    1.80
   6   4   6   28.50    1.78
  -6   4  -6   27.60    1.65
  -6  -4   6   24.55    2.04
  -6   4   7    0.88    0.63
   6   4  -7    1.39    1.12
  -6   4   7    1.26    0.59
   6  -4   7    0.06    0.37
  -6  -4  -7    0.78    0.41
  -6   4  -7    0.75    0.38
  -6   4  -7    0.35    0.51
   6   4   7    1.06    0.46
  -6  -4   7   -0.33    0.65
  -6  -4   7    0.59    0.51
   7   4   0   -1.75    2.56
  -7   4   0    1.13    1.14
  -7  -4   0   -0.96    3.28
  -7  -4   0    0.15    0.92
  -7  -4   0    0.47    0.98
  -7   4   0   -0.64    1.00
  -7  -4   0   -0.41    0.91
   7   4   0    0.62    0.85
  -7   4   0   -0.95    0.93
  -7   4   0   -0.26    0.81
  -7  -4   0    0.75    1.14
   7  -4   0    0.06    2.61
   7   4   0    0.17    2.17
  -7   4   0   -4.10    3.28
   7  -4   1  113.20    7.18
   7   4  -1  112.50    7.42
  -7   4   1   98.15    5.24
  -7   4   1  107.90    5.31
  -7  -4  -1  132.03    8.68
  -7   4   1  109.35    5.50
  -7  -4  -1  104.85    5.25
  -7   4   1  104.70    5.40
  -7   4   1   98.41    7.95
  -7  -4  -1  106.00    5.36
  -7  -4  -1  114.72    5.39
  -7  -4   1  109.84    5.51
  -7  -4   1  108.40    5.21
   7  -4  -1  113.49    7.86
  -7   4  -1  112.13    5.28
   7   4   1   89.85    7.24
  -7  -4   1  111.80    5.42
  -7   4  -1  109.33    8.35
  -7  -4   1  115.21    5.38
  -7  -4   1  108.25    8.40
  -7   4  -1  110.14    5.43
  -7   4  -1  105.89    5.36
  -7   4  -1  114.91    5.48
   7   4   1  107.04    5.23
   7  -4   2    2.06    2.67
  -7   4   2    0.97    1.13
   7   4  -2    1.38    2.25
  -7   4   2    2.33    0.84
  -7  -4  -2    2.44    0.97
  -7   4   2    2.13    0.89
  -7  -4  -2    2.64    0.90
  -7   4   2   -1.16    1.07
  -7  -4  -2   -4.16    3.09
  -7   4   2   -0.11    3.35
  -7   4  -2    3.16    1.13
  -7  -4   2   -6.77    3.94
  -7  -4   2    2.55    1.16
  -7  -4   2    1.77    1.30
  -7   4  -2    1.14    0.96
  -7  -4   2    1.54    0.86
  -7   4  -2    3.80    3.41
   7   4   2    3.21    0.92
  -7   4  -2    1.18    1.09
   7   4   2    1.65    3.32
  -7   4  -2    2.20    0.94
  -7  -4   2    1.06    0.80
  -7  -4  -3   64.36    3.31
  -7  -4  -3   74.47    8.00
  -7   4   3   55.02    3.19
  -7   4   3   62.94    3.41
  -7  -4  -3   60.94    3.24
   7  -4   3   66.44    5.94
   7   4  -3   53.51    6.28
  -7   4   3   63.62    3.26
  -7   4   3   66.87    3.56
  -7   4  -3   65.77    3.44
  -7   4  -3   65.99    3.35
   7   4   3   63.83    3.34
  -7  -4   3   62.74    3.55
   7   4   3   56.33    3.18
  -7   4  -3   47.26    7.56
  -7  -4   3   54.76    3.26
  -7   4  -3   60.53    3.37
  -7  -4   3   60.11    3.57
  -7  -4   3   64.19    3.24
  -7   4   4    1.55    0.92
  -7   4   4    4.02    0.82
  -7   4   4    1.75    1.00
  -7  -4  -4    2.37    0.75
  -7   4  -4    2.31    0.82
  -7  -4   4    1.39    1.46
  -7  -4   4    2.41    1.33
  -7   4  -4    2.62    0.77
  -7   4   5   49.90    2.59
  -7  -4  -5   50.74    2.62
  -7   4   5   47.41    2.71
   7   4   5   49.93    2.62
  -7  -4   5   50.89    2.86
  -7  -4   5   50.19    2.62
  -7   4  -5   51.93    2.72
  -7  -4   5   49.16    2.82
  -7  -4  -6    1.82    0.52
   7  -4   6    0.80    0.38
  -7   4   6    1.47    0.72
  -7  -4   6    2.49    0.73
  -7  -4   6    1.41    0.54
  -7   4  -6    1.65    0.52
   7   4   6    1.58    0.54
  -8   4   0   43.85    2.67
  -8   4   0   39.65    2.37
   8   4   0   35.85    2.46
  -8  -4   0   41.41    2.57
  -8  -4   0   42.61    2.48
  -8   4   0   32.68    3.01
  -8   4   0   40.60    2.64
  -8  -4  -1   -0.34    0.79
  -8   4   1    0.13    0.72
   8   4  -1    1.36    1.18
  -8   4   1   -0.40    0.98
  -8  -4  -1   -0.12    0.89
  -8   4   1    0.41    1.00
  -8  -4  -1   -0.08    1.26
  -8   4  -1    0.98    0.82
  -8  -4   1   -1.66    1.20
  -8  -4   1   -0.32    0.86
  -8  -4   1   -0.60    0.98
  -8   4  -1    1.02    1.00
  -8   4  -1    0.13    1.00
  -8   4  -1    0.76    1.03
   8   4   1    0.71    1.05
  -8  -4  -2   49.73    2.97
  -8   4   2   45.38    2.56
  -8   4   2   44.70    3.01
  -8   4   2   46.06    3.01
  -8  -4  -2   42.40    2.38
  -8   4   2   40.02    2.47
  -8   4  -2   34.82    3.13
  -8   4  -2   49.12    2.99
  -8  -4   2   43.57    2.53
  -8  -4   2   41.51    2.43
  -8  -4   2   43.42    3.71
  -8   4  -2   45.81    2.74
  -8   4   3    0.13    0.86
  -8   4   3   -1.45    0.95
  -8  -4  -3    0.01    0.76
  -8   4   3   -0.44    0.69
  -8  -4  -3    0.02    0.66
  -8  -4   3    2.05    0.70
  -8   4  -3    0.73    0.76
   8   4   3    1.58    0.79
  -8   4  -3    1.96    0.82
  -8   4  -3    0.03    0.78
  -8  -4   3    0.25    0.92
  -8  -4   3    1.56    0.91
  -8   4   4   20.69    1.61
  -8   4   4   23.69    1.73
  -8   4   4   24.46    1.50
  -8  -4  -4   20.91    1.53
  -8  -4  -4   23.24    1.45
  -8   4  -4   22.63    1.51
   8   4   4   21.72    1.50
  -8   4  -4   20.87    1.54
  -8  -4   4   25.60    1.80
  -8   4  -4   24.93    1.65
  -8  -4   4   23.06    1.75
  -8  -4   4   25.01    1.50
   8  -4   5    1.87    0.43
  -8  -4  -5    0.96    0.47
  -8  -4   5    3.16    0.81
  -8  -4   5    1.08    0.47
  -8   4  -5    1.40    0.53
   8   4   5    1.97    0.50
  -8  -4   5    1.69    0.69
  -9  -4   0    1.58    0.90
  -9   4   0   -0.57    0.79
  -9   4   0   -0.01    0.81
  -9  -4   0    0.12    0.66
  -9  -4   0   -0.58    0.68
  -9   4   0    0.58    0.64
  -9  -4  -1   29.71    1.87
  -9   4   1   31.44    1.81
  -9   4   1   33.94    2.03
  -9   4   1   28.82    1.92
  -9  -4  -1   32.41    2.19
   9   4  -1   28.36    1.82
  -9   4  -1   29.83    2.07
  -9   4  -1   32.88    1.95
  -9   4  -1   30.63    1.86
  -9  -4   1   29.33    1.97
  -9   4  -1   28.19    1.91
  -9  -4   1   29.30    1.76
  -9  -4   1   31.28    1.84
  -9   4   2    1.06    0.66
  -9   4   2   -0.42    0.81
   9   4  -2   -0.67    0.56
  -9   4   2    0.15    0.55
  -9  -4  -2    0.64    0.60
  -9   4  -2    0.23    0.62
  -9   4  -2    0.58    0.64
  -9   4  -2   -0.85    0.64
  -9  -4   2   -1.00    0.54
  -9  -4   2    0.03    0.70
   9   4   2    0.38    0.57
  -9  -4   2    0.25    0.56
  -9   4   3   36.36    1.95
  -9   4   3   32.12    2.11
  -9  -4  -3   29.96    1.67
  -9   4  -3   30.25    1.74
  -9   4  -3   31.97    1.71
  -9  -4   3   29.09    1.82
   9   4   3   30.73    1.72
  -9  -4   3   27.02    1.82
   9  -4   4    0.84    0.30
   9   4  -4    1.17    0.48
  -9   4  -4    0.79    0.53
  -9  -4   4    1.65    0.55
  -9  -4   4    1.46    0.46
   9   4   4    1.56    0.41
 -10   4   0   18.21    1.12
 -10   4   0   17.34    1.20
  10   4   0   18.67    1.12
 -10  -4   0   17.89    1.08
 -10   4   1    0.28    0.38
 -10   4   1    0.22    0.50
 -10  -4  -1    0.60    0.35
 -10   4   1    1.15    0.45
  10   4   1    0.21    0.42
 -10   4  -1    0.43    0.49
 -10  -4   1    1.04    0.39
 -10   4  -1    0.30    0.39
 -10  -4   1    0.96    0.77
   0   5   0    0.14    0.79
   0  -5   0    0.64    0.42
   0  -5   0    1.42    2.16
   0   5   0    0.18    0.95
   0  -5   0    0.10    0.75
   0  -5   1  637.39   28.27
   0   5   1  596.96   29.31
   0   5  -1  618.09   29.85
   0   5  -1  611.18   28.50
   0   5  -1  635.29   28.67
   0  -5  -1  614.36   29.40
   0   5   1  631.60   28.60
   0  -5  -1  690.26   28.84
   0  -5   1  610.77   29.92
   0   5   1  673.62   28.70
   0  -5   1  643.47   28.80
   0  -5   2    0.35    0.97
   0   5   2   -0.34    1.04
   0   5  -2   -0.10    1.06
   0   5  -2    0.73    1.04
   0  -5  -2    0.34    4.77
   0   5   2   -1.26    0.93
   0  -5  -2    0.54    0.91
   0  -5   2   -3.59    3.95
   0  -5   2    0.49    0.73
   0  -5   3    2.10    1.32
   0   5  -3    3.90    1.40
   0   5   3    0.14    1.15
   0  -5  -3    0.00    1.19
   0  -5   3    2.15    1.06
   0   5  -3    2.95    1.87
   0   5  -4   -1.04    0.86
   0   5   4    1.00    1.47
   0   5  -4    0.16    1.86
   0   5   4   -0.83    0.69
   0   5  -4   -1.68    1.87
   0   5   4   -0.01    0.74
   0   5   4   -1.15    0.74
   0  -5   4   -0.12    1.27
   0   5   4   -0.10    0.62
   0   5   4   -0.41    0.93
   0  -5   4   -1.18    0.73
   0  -5  -5   -2.11    2.66
   0   5  -5    0.41    2.30
   0   5   5   -0.78    1.80
   0  -5   5    0.40    0.80
   0  -5   5    3.26    1.73
   0   5   5    1.93    0.91
   0   5   5   -0.78    0.75
   0   5   5    0.40    1.14
   0   5   5    0.34    0.90
   0  -5   5    0.10    0.94
   0   5  -5   -0.03    0.88
   0   5   5    0.41    0.79
   0  -5   6    0.21    2.32
   0   5  -6    0.44    0.90
   0  -5   6    0.29    0.88
   0   5   6    3.27    2.51
   0   5   6    0.09    0.92
   0   5   6    0.58    1.04
   0   5   6   -0.65    0.86
   0   5   6   -0.46    0.89
   0  -5  -6   -3.09    2.87
   0  -5   6    0.02    0.98
   0   5  -6    2.13    3.34
   0  -5  -7   24.26    5.50
   0   5   7   21.30    1.69
   0   5   7   18.63    1.74
   0  -5   7   19.43    1.67
   0   5   7   21.88    1.84
   0  -5   7   14.31    4.16
   0   5   7   22.29    1.98
   0   5  -7   20.46    1.65
   0   5   7   20.49    4.68
   0  -5   8    0.61    0.56
   0   5   8    0.80    0.87
   0   5   8    0.35    0.67
   0   5  -8   -0.74    0.65
   0   5   8    0.31    0.64
   0   5  -8   -0.46    0.51
   0  -5   9    0.07    0.32
   0   5   9    0.88    0.37
   0   5   9    0.62    0.42
   0   5   9    0.47    0.43
   1   5   0    3.36    2.50
  -1   5   0   -0.63    0.75
   1   5   0    0.44    0.71
  -1   5   0   -0.10    1.91
  -1  -5   0   -0.07    0.82
  -1  -5   0   -2.47    2.97
   1   5   0   -0.09    0.90
  -1   5   0    0.52    0.89
   1  -5   0    0.40    0.67
   1  -5   0   -2.72    2.05
  -1  -5   0    0.44    0.93
   1  -5   1   91.84    7.09
   1  -5   1   90.37    4.66
   1   5  -1   93.87    4.92
  -1  -5  -1   84.83    8.59
  -1   5   1   91.76    4.82
  -1   5   1   98.60    5.11
  -1   5   1   94.21    5.69
   1   5  -1   97.27    7.08
   1   5  -1   98.78    5.55
  -1  -5  -1   98.93    5.30
   1  -5  -1   94.93    5.72
  -1  -5   1   92.89    4.52
   1  -5  -1   82.40    4.39
  -1   5  -1   93.20    5.12
   1   5   1   96.70    4.98
  -1   5  -1   90.90    4.62
  -1  -5   1   97.72    7.36
  -1  -5   1  100.89    5.29
   1   5   1   97.08    5.04
   1   5   1   83.83    6.32
  -1   5   2  115.66    6.06
   1   5  -2  112.64    6.14
   1   5  -2  112.99    8.95
  -1  -5  -2  123.50    6.46
  -1   5   2  113.42    6.64
   1   5  -2  116.10    6.11
  -1   5   2  123.21    6.28
   1  -5   2  115.85    5.94
   1   5   2  123.12    6.26
  -1   5  -2  114.72    6.32
  -1  -5   2  126.29   10.08
   1   5   2  120.35    6.24
   1  -5  -2  131.20    6.27
  -1  -5   2  119.77    6.43
  -1  -5   2  112.24    5.80
   1  -5  -2  117.98    7.69
   1   5  -3    0.36    1.32
  -1  -5  -3    0.44    1.21
   1   5  -3    2.33    1.51
  -1   5   3    2.43    1.33
   1  -5   3    2.57    1.25
   1  -5   3    1.23    1.25
  -1   5   3   -0.63    1.12
   1   5   3    1.96    1.24
  -1  -5   3    1.95    1.28
   1  -5  -3    1.18    1.16
  -1   5  -3    1.69    1.48
  -1  -5   3    0.99    1.57
  -1  -5  -4   16.56    3.39
  -1   5   4   13.33    2.18
  -1   5   4   16.19    1.64
   1   5  -4   14.77    3.15
   1   5  -4   14.00    1.68
   1   5  -4   12.50    2.13
  -1   5   4   13.45    1.17
   1  -5   4   12.40    2.03
   1  -5   4   13.22    1.39
  -1   5   4   14.09    1.55
  -1   5   4   12.87    1.43
  -1   5   4   12.01    1.35
  -1  -5   4   15.24    1.56
   1   5   4   16.88    1.59
   1   5   4   12.27    1.55
  -1   5  -4   13.10    1.45
  -1  -5   4    9.63    1.73
   1   5   4   13.07    1.26
  -1   5  -4   11.25    2.53
  -1  -5   4   15.01    1.41
   1   5   4   11.84    1.32
   1   5   4   15.07    1.25
   1   5   4   15.50    2.58
  -1  -5  -5    6.58    2.82
  -1   5   5    9.89    1.46
   1  -5   5    8.03    2.27
  -1   5   5   12.86    2.00
   1   5  -5    9.64    3.00
  -1   5   5    5.20    2.42
   1   5  -5   11.93    2.70
   1   5  -5   12.69    1.50
  -1  -5   5    8.45    2.23
  -1   5  -5    4.48    2.93
   1   5   5   10.07    1.50
  -1  -5   5   10.07    1.58
  -1  -5   5   13.27    1.62
   1   5   5   10.75    1.29
   1   5   5    9.94    2.09
  -1   5   6    6.44    0.95
   1  -5   6    6.75    1.11
   1   5  -6    7.51    1.07
   1   5  -6    5.89    3.94
  -1   5   6    6.77    1.15
   1  -5   6    7.91    1.12
  -1   5   6    4.81    1.00
   1  -5   6    4.40    2.51
  -1   5   6    7.86    2.60
  -1   5   6    7.67    1.23
  -1  -5  -6    9.65    3.78
  -1  -5   6    9.18    1.15
   1   5   6    7.66    1.07
   1   5   6    8.01    1.14
   1   5   6    6.84    1.13
   1   5   6   10.91    2.88
   1   5   6    6.73    1.00
  -1   5  -6   11.09    3.68
   1  -5  -6    8.65    3.45
  -1  -5   6   10.04    1.29
  -1   5  -6    6.13    1.06
  -1  -5   6   12.52    2.66
   1  -5   7    4.80    0.98
  -1   5   7    5.67    1.16
  -1   5   7    3.43    0.84
  -1   5   7    3.86    1.00
   1   5  -7    5.69    1.26
  -1  -5  -7    1.34    1.25
  -1   5   7    5.78    1.03
   1   5   7    3.04    0.89
   1   5   7    4.79    1.13
  -1   5  -7    2.95    0.83
  -1  -5   7    1.94    0.82
  -1   5  -7    5.05    1.06
   1   5   7    3.76    0.84
   1   5   7    4.17    0.92
   1   5  -8    1.03    0.72
  -1   5   8    0.59    0.71
  -1   5   8   -0.45    0.68
   1  -5   8    0.45    0.53
  -1   5   8    1.10    0.79
   1   5  -8    1.06    0.73
  -1   5  -8    1.16    0.55
  -1   5  -8   -0.65    0.62
   1   5   8    1.26    0.76
   1   5   8    0.97    0.66
  -1  -5   8    0.04    0.62
   1   5   8    0.28    0.62
  -1   5   9   -0.30    0.48
  -1   5   9    0.00    0.39
   1  -5   9    0.69    0.35
   1   5  -9    0.94    0.45
  -1   5   9    0.27    0.42
  -1  -5   9   -0.52    0.31
  -1   5  -9    0.42    0.35
   1   5   9   -0.28    0.38
  -2   5   0   21.48    2.27
  -2  -5   0   26.30    4.42
   2   5   0   19.63    1.85
   2  -5   0   21.75    2.94
   2  -5   0   17.96    1.89
  -2  -5   0   16.96    2.37
   2   5   0   18.69    2.03
   2   5   0   21.39    3.56
  -2  -5   0   17.25    1.60
   2   5  -1    0.77    1.16
   2   5  -1    1.74    0.94
   2   5  -1    6.13    3.94
  -2  -5  -1    4.28    3.76
   2  -5   1    1.97    0.92
  -2   5   1    0.16    0.83
  -2   5   1    1.32    1.04
  -2  -5  -1    1.75    1.32
  -2  -5   1    3.49    4.66
   2  -5  -1    2.38    1.78
   2   5   1    1.91    1.12
  -2   5  -1    0.43    1.05
   2  -5  -1    1.04    1.01
  -2  -5   1    1.33    1.16
   2   5   1    1.69    0.97
  -2  -5   1    1.08    0.67
   2   5  -2   49.97    3.39
   2   5  -2   68.19   10.94
  -2   5   2   47.41    3.05
   2   5  -2   49.72    3.29
  -2  -5  -2   44.52    3.74
   2  -5   2   47.27    3.19
   2   5   2   51.03    3.27
  -2   5  -2   45.80    3.89
  -2  -5   2   53.74    9.37
  -2  -5   2   45.07    3.78
  -2  -5   2   49.37    2.90
  -2   5   3   10.79    1.01
  -2   5   3    9.51    1.48
  -2   5   3   12.18    2.18
  -2   5   3   13.98    2.45
   2   5  -3   14.03    2.53
   2  -5   3    7.99    1.54
   2   5  -3   10.12    1.80
  -2  -5   3    9.11    1.33
  -2   5  -3    9.60    1.55
   2   5   3   12.03    1.85
  -2  -5   3    9.97    2.08
  -2   5  -3    7.64    1.90
   2  -5  -3   13.12    2.13
  -2   5  -3    9.32    1.27
   2   5   3   11.39    1.37
   2   5   3   10.51    1.20
  -2  -5   3   12.03    1.92
  -2   5   4   68.87    4.68
   2   5  -4   64.62    5.20
  -2   5   4   62.76    3.34
  -2   5   4   65.02    3.37
  -2   5   4   64.31    3.27
   2  -5   4   65.85    3.34
  -2   5   4   66.50    3.40
  -2   5   4   65.13    3.46
  -2  -5  -4   54.39    5.43
   2   5  -4   71.24    5.31
   2  -5   4   64.64    4.48
   2  -5   4   63.87    4.56
  -2  -5   4   67.76    3.32
  -2   5  -4   69.46    3.67
  -2  -5   4   55.38    3.72
  -2   5  -4   66.98    3.36
   2   5   4   66.15    4.38
   2   5   4   65.97    3.37
   2   5   4   66.37    3.30
   2   5   4   66.73    3.45
  -2  -5   4   62.77    4.24
  -2  -5   4   68.75    3.52
  -2   5  -4   60.70    3.54
   2   5   4   68.45    3.31
  -2   5  -4   66.40    5.61
   2   5  -5   44.88    6.11
  -2   5   5   37.46    4.39
  -2   5   5   41.26    2.45
  -2   5   5   44.63    2.69
   2  -5   5   46.47    2.54
   2   5  -5   37.03    5.03
  -2   5   5   44.02    2.67
   2  -5   5   43.31    4.17
  -2   5  -5   48.26    5.62
   2   5   5   44.25    2.49
  -2   5  -5   44.61    2.81
  -2  -5   5   47.29    2.82
   2   5   5   47.56    2.62
   2  -5  -5   32.19    5.91
   2   5   5   44.84    3.96
  -2   5  -5   40.79    2.75
  -2  -5   5   43.79    4.09
   2   5   5   47.44    2.52
  -2  -5   5   47.15    2.55
  -2  -5  -6    1.23    3.99
  -2   5   6   -0.10    0.84
  -2   5   6   -0.71    0.97
  -2   5   6   -0.19    3.19
   2  -5   6    3.07    2.38
  -2   5   6    0.08    1.05
  -2   5   6    0.41    0.71
   2  -5   6   -0.10    0.92
   2  -5   6    0.73    0.88
  -2  -5   6   -0.22    1.38
   2   5   6    0.26    0.75
  -2  -5   6   -3.70    2.69
  -2   5  -6   -0.22    0.93
  -2   5  -6   -2.44    3.60
  -2  -5   6   -0.68    1.01
   2   5   6   -0.44    0.77
   2  -5  -6    2.18    3.91
  -2  -5   6    0.27    0.88
   2   5   6   -1.40    0.86
   2   5   6   -0.26    2.69
   2   5   6    0.48    0.94
  -2  -5   6    0.22    1.17
  -2   5  -6   -1.18    0.94
   2  -5   7    1.80    0.81
  -2   5   7    2.53    0.93
  -2   5   7    1.65    0.97
  -2  -5  -7    0.51    0.84
   2   5   7    2.25    0.81
  -2   5  -7    2.18    0.83
   2   5   7    2.74    1.11
  -2  -5   7    2.80    1.09
   2   5   7    2.99    1.46
  -2  -5   7    2.45    0.89
  -2  -5   7    1.11    0.84
  -2   5   8   -0.63    0.67
   2   5  -8    0.36    0.72
   2  -5   8   -0.25    0.47
  -2   5   8    1.12    0.73
  -2   5   8   -1.41    0.69
   2   5   8    0.12    0.52
  -2   5  -8   -0.49    0.53
   2   5   8    0.26    0.61
   2   5   8   -0.43    0.75
  -2  -5   8    0.22    0.62
  -3  -5   0   -3.81    5.01
  -3  -5   0   -1.32    0.80
  -3  -5   0    0.60    1.35
   3  -5   0    0.63    1.09
   3   5   0    1.85    1.04
  -3   5   0   -0.88    1.17
  -3   5   0   -0.67    1.19
   3   5  -1   13.70    7.48
  -3   5   1    9.79    2.67
  -3   5   1   13.79    2.14
   3   5  -1   10.66    1.84
  -3   5   1   10.49    1.75
  -3  -5  -1    9.55    2.01
   3  -5   1   10.22    1.69
  -3  -5   1   11.67    1.55
  -3  -5   1    7.46    6.42
  -3  -5   1    7.79    1.95
   3   5   1   11.40    2.00
   3  -5  -1   11.36    1.98
  -3   5  -1   12.47    2.36
  -3   5  -1   10.42    2.23
   3  -5   2    3.12    1.33
  -3   5   2    2.73    1.22
  -3  -5  -2    0.59    1.64
   3   5  -2    2.12    1.44
  -3   5   2    2.33    1.15
  -3  -5   2    3.64    0.85
  -3   5  -2    3.49    1.15
  -3   5  -2    2.30    1.54
  -3  -5   2    3.41    1.68
   3   5   2    2.07    0.64
  -3  -5   2    5.09    1.66
  -3   5  -2    1.42    1.41
   3   5   2    0.93    1.28
  -3  -5   2    2.20    0.97
  -3   5  -2    1.64    0.92
  -3   5   3    1.82    0.87
  -3   5   3    2.20    0.64
  -3   5   3    2.49    0.90
  -3   5   3    1.23    1.48
  -3  -5  -3    2.93    2.10
   3   5  -3    2.28    1.82
  -3   5   3    2.61    0.98
   3  -5   3    0.96    1.32
  -3   5   3   -0.42    1.23
  -3  -5  -3   -0.61    1.87
  -3  -5  -3    2.83    1.21
  -3   5  -3    1.17    0.95
  -3   5  -3    2.61    0.93
  -3   5  -3    1.73    1.93
  -3   5  -3    1.59    0.94
  -3   5  -3    3.01    0.70
  -3  -5   3    2.42    0.87
   3   5   3    3.25    1.04
   3   5   3    1.79    0.84
  -3  -5   3    3.32    1.07
  -3  -5   3    1.63    0.76
   3   5   3    2.47    0.69
  -3  -5   3   -2.55    2.04
   3   5   3    2.33    1.31
  -3  -5   3    1.71    1.35
   3   5  -4   21.79    3.74
   3  -5   4   21.56    3.06
  -3   5   4   22.00    1.60
  -3  -5  -4   18.27    3.20
  -3  -5  -4   13.96    3.16
  -3   5   4   23.23    1.66
  -3   5   4   26.10    1.79
  -3   5   4   17.78    1.85
  -3   5   4   19.46    1.90
  -3   5   4   18.91    3.15
   3   5   4   23.38    2.19
   3   5   4   23.33    3.23
  -3   5  -4   21.75    1.71
   3   5   4   19.58    1.57
  -3  -5   4   17.62    2.31
   3   5   4   20.95    1.60
  -3  -5   4   22.40    1.67
  -3  -5   4   23.64    2.21
  -3   5  -4   21.22    1.86
  -3   5  -4   22.42    1.85
  -3  -5   4   21.63    1.93
   3   5   4   21.25    1.68
  -3  -5   4   21.23    2.76
  -3   5   5    4.52    2.68
   3   5  -5    7.37    2.99
  -3  -5  -5    6.77    3.21
  -3   5   5    2.88    0.97
  -3   5   5    3.92    0.83
   3  -5   5    4.73    0.93
  -3   5   5    4.23    1.03
  -3   5   5    1.68    0.95
   3   5   5    3.38    2.26
  -3  -5   5    4.18    1.27
   3   5   5    5.17    1.17
  -3  -5   5    3.13    1.43
   3   5   5    5.16    1.00
  -3  -5   5    7.44    2.45
  -3   5  -5    5.12    1.02
  -3  -5   5    3.43    0.92
   3   5   5    4.53    0.91
  -3  -5   5    3.77    1.19
   3  -5  -5    0.65    3.67
  -3   5  -5    5.25    1.00
   3   5   5    2.52    0.80
  -3  -5  -6    7.59    1.03
  -3   5   6    8.18    1.31
  -3   5   6    6.49    1.17
   3  -5   6    9.78    2.92
   3  -5   6    9.74    1.36
  -3   5   6    3.48    3.50
  -3   5   6    7.75    0.99
  -3   5   6    6.22    1.12
   3   5  -6    8.05    3.96
  -3  -5  -6   10.66    3.72
  -3  -5   6    8.47    1.50
  -3   5  -6   11.43    3.95
  -3  -5   6    7.39    1.42
   3   5   6    9.06    1.52
  -3  -5   6   10.08    1.44
  -3  -5   6    9.85    2.81
   3   5   6    8.55    1.00
   3  -5  -6    7.42    5.50
   3   5   6    7.00    1.16
  -3   5  -6   10.02    1.41
   3   5   6    7.42    2.91
   3   5   6    9.30    1.28
  -3  -5   6   10.12    1.68
   3  -5   7   40.61    2.27
  -3   5   7   40.76    2.21
  -3   5   7   39.62    2.51
  -3  -5  -7   40.96    2.24
  -3   5   7   43.42    2.47
  -3   5   7   40.28    2.50
   3   5   7   38.89    2.37
  -3  -5   7   42.22    2.33
   3   5   7   41.11    2.24
  -3  -5   7   36.79    2.72
  -3   5  -7   38.76    2.32
  -3  -5   7   41.26    2.42
  -3  -5   7   47.03    2.76
  -3   5   8    1.71    0.65
  -3  -5  -8    1.53    0.67
  -3   5   8    1.86    0.67
   3   5  -8    1.15    0.70
  -3   5   8    1.45    0.64
   3  -5   8    1.54    0.48
  -3   5  -8    1.01    0.49
  -3  -5   8    0.74    0.61
   3   5   8    1.39    0.54
   3   5   8    0.51    0.58
  -4  -5   0   17.31    1.66
  -4   5   0   16.31    1.61
   4  -5   0   14.32    2.06
  -4   5   0   18.43    2.55
  -4   5   0   17.32    1.48
  -4   5   0   14.75    2.96
  -4  -5   0   12.67    2.45
   4   5   0   16.00    2.15
  -4   5   0   16.89    1.50
  -4   5   1    6.82    0.92
   4   5  -1    6.03    1.65
   4  -5   1    8.12    1.78
  -4   5   1    6.66    1.57
  -4   5   1    6.95    1.25
  -4   5   1    7.87    1.25
  -4  -5  -1    8.61    2.12
  -4   5   1    5.80    1.85
  -4  -5  -1    8.68    1.62
  -4   5  -1    6.99    0.93
  -4   5  -1    8.36    1.13
   4   5   1    7.19    0.88
  -4  -5   1    4.14    2.21
  -4   5  -1    9.36    1.14
  -4  -5   1    8.46    1.33
   4   5   1    4.04    1.46
  -4   5  -1    8.62    1.90
  -4   5  -1    7.18    1.72
  -4   5  -1    6.46    1.00
  -4  -5   1    7.66    1.59
   4  -5  -1   11.52    1.88
  -4   5  -1    8.74    1.32
  -4  -5   1    8.68    1.52
   4   5  -2    6.57    1.92
  -4   5   2    6.44    0.95
  -4   5   2    4.19    1.21
  -4   5   2    4.67    1.69
   4   5  -2    6.38    1.12
   4  -5   2    5.69    1.66
  -4  -5  -2    6.21    2.25
  -4  -5  -2    7.72    1.17
  -4   5   2    4.74    0.79
  -4   5   2    5.59    0.91
  -4   5  -2    5.67    0.97
  -4  -5   2    7.81    1.56
  -4   5  -2    6.50    1.02
  -4  -5   2    3.94    2.14
  -4   5  -2    7.21    0.94
  -4  -5   2    7.31    1.08
  -4  -5   2    5.57    0.94
  -4   5  -2    6.86    1.03
  -4   5  -2    5.15    0.86
  -4  -5   2    7.48    1.35
   4   5   2    7.02    1.08
   4   5   2    4.59    1.53
  -4   5  -2    4.69    1.86
  -4  -5   2    6.83    1.36
  -4   5  -2   10.21    2.25
   4   5  -3   24.77    3.50
   4  -5   3   31.70    3.30
  -4   5   3   25.68    1.76
  -4   5   3   25.36    2.29
  -4  -5  -3   27.55    2.17
  -4   5   3   27.67    1.90
  -4  -5  -3   28.83    4.25
   4   5  -3   23.22    2.04
  -4   5   3   29.43    2.23
  -4  -5  -3   23.39    4.54
   4   5   3   28.40    1.85
  -4   5  -3   28.36    4.39
  -4   5  -3   26.38    2.09
   4   5   3   28.79    1.84
  -4  -5   3   28.28    1.98
  -4   5  -3   29.01    2.05
  -4  -5   3   24.42    3.17
  -4   5  -3   26.78    1.97
  -4  -5   3   27.78    2.16
  -4   5  -3   26.26    1.81
   4   5   3   31.00    3.23
  -4  -5   3   28.31    2.29
  -4  -5   3   27.33    4.60
  -4  -5   3   26.37    1.85
  -4   5   4   13.56    1.75
  -4   5   4   14.46    1.53
  -4  -5  -4   16.96    3.28
   4  -5   4    8.54    2.18
  -4  -5  -4   13.48    3.48
   4   5  -4   16.57    3.09
  -4  -5   4   11.73    3.05
  -4   5  -4   15.81    2.21
   4   5   4   12.75    2.30
   4   5   4   15.32    1.47
  -4  -5   4   11.62    1.93
  -4  -5   4   11.67    1.66
   4   5   4   12.40    1.95
  -4   5  -4   10.44    2.95
  -4   5  -4   14.30    1.50
   4   5   4   15.62    1.41
  -4  -5   4   17.39    2.00
  -4  -5   4   13.12    1.49
  -4   5  -4   13.05    1.81
  -4   5  -4   16.00    1.70
   4  -5   5    2.97    0.84
   4   5  -5    4.73    2.91
  -4   5   5    5.10    1.05
  -4   5   5    4.88    0.93
  -4   5   5    2.35    1.00
  -4  -5  -5    6.00    1.09
  -4  -5  -5   -1.70    3.84
   4  -5   5    5.26    2.34
  -4   5   5    3.46    0.95
  -4   5  -5    4.46    1.10
   4   5   5    4.40    2.50
  -4  -5   5    3.90    1.27
  -4  -5   5    3.51    1.08
  -4   5  -5    4.33    0.97
   4   5   5    3.96    0.86
   4   5   5    3.89    0.89
  -4   5  -5   -0.60    3.07
  -4  -5   5    2.23    0.88
  -4  -5   5    3.15    1.28
   4  -5  -5    7.65    5.74
   4  -5   6    6.21    0.88
  -4   5   6    7.49    1.11
  -4   5   6    8.06    1.19
  -4  -5  -6    5.22    0.94
  -4   5   6    6.06    1.06
  -4  -5   6    6.87    1.35
   4   5   6    7.17    1.02
  -4  -5   6    5.94    1.22
  -4   5  -6    5.61    0.91
  -4   5  -6    4.32    0.99
   4   5   6    5.21    0.82
  -4  -5   6    5.60    1.10
  -4  -5   6    5.86    0.95
  -4   5   7    0.97    0.77
  -4   5   7    1.09    0.87
   4   5  -7   -0.36    0.89
  -4  -5  -7    0.81    0.61
  -4   5   7   -0.59    0.76
   4  -5   7    0.84    0.64
  -4  -5   7    0.91    0.77
   4   5   7    0.39    0.57
  -4   5  -7    0.51    0.63
  -4  -5   7    1.34    0.75
   4   5   7    1.30    0.69
  -4  -5   7    0.24    1.06
  -4   5   8   -0.26    0.71
   4   5  -8   -0.56    0.85
  -4  -5  -8    0.77    0.37
  -4   5   8    1.45    0.71
   4  -5   8    0.21    0.41
  -4  -5  -8   -0.07    0.34
  -4   5   8    0.13    0.48
   4   5   8    1.26    0.52
  -4   5  -8   -0.39    0.40
  -4  -5   8   -0.16    0.69
  -5   5   0    0.55    0.89
  -5  -5   0   -1.18    2.15
  -5   5   0    0.40    0.79
   5   5   0   -0.81    1.41
  -5   5   0    0.91    0.78
  -5  -5   0    0.08    1.07
  -5  -5   0    0.90    0.79
  -5   5   0   -0.50    0.74
  -5  -5   0    0.75    0.79
  -5   5   0   -0.06    1.77
  -5   5   0    0.86    0.79
   5  -5   0    2.56    1.86
  -5   5   0    0.41    2.14
   5  -5   1   20.98    3.12
  -5  -5  -1   27.57    1.92
  -5   5   1   24.29    1.80
  -5   5   1   24.62    1.75
  -5  -5  -1   20.52    3.68
   5   5  -1   23.34    3.10
  -5  -5  -1   20.49    1.88
  -5   5   1   24.06    1.83
  -5   5   1   24.12    2.05
  -5   5   1   24.98    3.80
  -5   5   1   16.73    3.68
  -5   5  -1   22.80    1.89
  -5   5  -1   25.92    1.84
  -5  -5   1   25.19    1.87
   5  -5  -1   23.44    3.46
  -5   5  -1   22.52    1.93
  -5   5  -1   25.16    3.89
  -5  -5   1   23.37    2.03
  -5  -5   1   16.95    2.89
   5   5   1   28.74    3.11
  -5  -5   1   22.09    1.88
  -5  -5   1   26.43    4.15
  -5   5  -1   23.96    1.67
  -5   5  -1   24.04    1.69
   5   5   1   24.47    1.71
  -5   5   2    5.22    0.96
  -5  -5  -2    6.32    1.17
  -5  -5  -2    5.47    2.59
  -5   5   2    7.41    1.31
   5  -5   2    6.27    1.99
  -5   5   2    6.59    0.92
  -5   5   2    7.64    2.00
  -5   5   2    7.28    0.99
  -5  -5  -2    6.91    1.03
   5   5  -2    6.78    2.15
  -5   5   2    2.76    2.10
  -5  -5   2    6.07    0.95
  -5  -5   2    6.09    1.17
   5   5   2    5.96    0.91
  -5  -5   2    2.77    1.56
  -5   5  -2    5.38    0.86
  -5   5  -2    8.59    1.20
  -5   5  -2    5.07    1.10
  -5   5  -2    7.69    2.49
   5   5   2    7.26    1.91
  -5  -5   2    0.53    2.56
  -5   5  -2    8.51    2.59
  -5   5  -2    6.42    1.92
  -5   5  -2    7.15    1.16
  -5  -5   2    6.19    1.23
  -5  -5   2    5.45    1.13
  -5  -5  -3    9.40    3.08
   5  -5   3   10.78    2.28
  -5   5   3    6.67    1.47
  -5   5   3    5.17    1.08
  -5   5   3    6.06    1.44
  -5  -5  -3    7.12    1.16
   5   5  -3    5.36    2.32
  -5  -5  -3    8.69    1.07
   5   5  -3    7.28    1.24
  -5  -5   3    5.75    1.32
  -5  -5   3    1.63    3.18
  -5   5  -3    7.84    1.11
  -5  -5   3    5.80    1.02
   5   5   3    5.83    0.91
   5   5   3    9.27    1.30
  -5   5  -3    8.16    1.29
   5   5   3    4.21    2.17
  -5   5  -3    3.77    3.20
  -5   5  -3    9.32    1.20
  -5  -5   3   10.36    2.26
  -5   5  -3    6.13    0.94
  -5   5  -3    3.21    3.27
  -5  -5   3    8.58    1.01
  -5  -5   3    5.42    1.79
  -5  -5  -4   11.16    4.48
  -5  -5  -4   12.61    1.55
   5  -5   4    9.96    2.39
  -5  -5  -4   11.77    1.56
   5   5  -4    7.80    2.66
  -5   5   4   12.32    1.53
  -5   5   4   11.27    1.49
   5   5  -4    9.96    1.61
  -5   5   4   10.55    1.57
  -5  -5   4   10.95    1.77
  -5  -5   4    9.76    1.47
  -5   5  -4   11.65    1.53
   5   5   4    7.61    2.49
   5   5   4   10.92    1.37
   5   5   4    9.95    1.38
  -5  -5   4   12.81    2.65
  -5   5  -4   12.44    1.43
  -5  -5   4   11.00    1.48
  -5  -5   4    7.82    1.41
  -5   5  -4   11.82    1.63
  -5   5  -4    7.27    3.42
  -5   5  -4   11.25    1.83
  -5   5   5    1.80    0.88
  -5   5   5    0.66    0.99
   5  -5   5    0.43    2.34
   5   5  -5   -0.30    0.95
  -5   5   5   -0.26    0.93
  -5  -5  -5    1.35    0.84
   5  -5   5    1.19    0.70
   5   5  -5   -4.79    3.29
   5   5   5    2.20    4.00
  -5   5  -5    0.62    0.79
  -5  -5   5    2.61    3.08
   5   5   5    0.73    0.77
  -5   5  -5    1.86    0.93
  -5  -5   5    0.22    0.88
  -5  -5   5    0.29    1.07
  -5   5  -5   -0.18    3.88
   5   5   5    1.16    0.76
  -5  -5   5    1.22    1.17
  -5  -5   5   -0.88    1.19
  -5  -5  -6   18.09    1.48
   5  -5   6   18.09    1.39
   5   5  -6   20.30    1.76
  -5   5   6   17.55    1.57
  -5   5   6   18.45    1.64
  -5   5   6   15.23    1.64
   5   5   6   17.97    1.34
  -5  -5   6   15.02    2.06
  -5  -5   6   13.96    1.45
   5   5   6   16.68    1.47
  -5  -5   6   18.20    1.71
  -5   5  -6   18.71    1.45
  -5   5  -6   19.60    1.47
  -5   5   7    0.30    0.66
   5  -5   7    0.00    0.42
  -5  -5  -7    0.22    0.57
  -5   5   7    0.41    1.17
   5   5  -7    0.99    0.72
  -5   5   7    0.11    0.60
  -5  -5   7    0.09    0.70
  -5   5  -7    0.38    0.52
  -5  -5   7    0.65    1.18
  -5  -5   7    0.17    0.61
   5   5   7   -0.54    0.48
  -6   5   0   19.10    1.91
  -6   5   0   16.56    1.95
  -6  -5   0   19.97    1.77
   6   5   0   20.01    3.37
  -6   5   0   17.90    3.46
  -6  -5   0   16.30    1.73
   6  -5   0   19.69    3.02
  -6  -5   0   16.14    2.04
   6   5   0   16.79    1.60
  -6   5   0   17.57    1.77
  -6   5   0   16.39    1.56
  -6  -5   0   15.45    3.08
   6   5  -1    8.61    2.07
  -6  -5  -1   16.08    1.74
  -6  -5  -1   12.65    1.77
  -6  -5  -1   13.11    3.32
  -6   5   1   14.54    1.67
  -6   5   1   14.81    1.69
  -6   5   1   12.14    2.98
   6  -5   1   10.00    2.40
  -6   5   1   13.65    1.54
  -6   5   1   13.84    1.84
  -6   5  -1   11.65    1.89
   6  -5  -1   15.04    3.18
  -6  -5   1   14.68    1.65
  -6  -5   1   13.55    1.84
  -6  -5   1   13.72    1.53
   6   5   1   13.88    1.50
  -6   5  -1   11.94    1.75
  -6  -5   1   14.87    1.61
  -6  -5   1   19.21    3.72
  -6   5  -1   15.16    1.49
  -6   5  -1   12.33    1.77
  -6   5  -1   23.81    4.75
  -6   5   2    0.48    0.84
  -6   5   2    1.05    0.79
  -6   5   2    0.15    0.86
  -6  -5  -2   -1.91    2.69
  -6  -5  -2    0.06    0.92
  -6   5   2   -0.50    1.09
  -6  -5  -2    1.16    0.75
   6   5  -2    3.26    2.36
  -6   5   2    1.51    3.64
   6  -5   2    2.64    2.32
  -6   5  -2    2.04    2.81
  -6  -5   2   -0.86    0.77
  -6  -5   2   -1.86    1.18
  -6   5  -2    0.39    0.81
   6   5   2    0.05    0.79
  -6   5  -2    0.68    1.02
  -6  -5   2    3.88    4.74
  -6   5  -2   -1.11    1.05
  -6   5  -2   -0.25    0.83
  -6   5  -2   -0.41    0.96
  -6  -5   2    0.17    0.87
  -6  -5   2    0.13    0.90
  -6  -5  -3    2.93    0.90
  -6   5   3    3.62    1.21
  -6  -5  -3    3.61    1.05
  -6  -5  -3    4.81    3.58
  -6   5   3    3.15    0.81
   6   5  -3   -0.09    2.83
  -6   5   3    1.73    0.89
   6   5   3    4.00    0.93
  -6  -5   3    3.88    0.90
  -6   5  -3    2.72    0.75
  -6   5  -3    3.53    1.05
  -6   5  -3    3.06    3.39
  -6  -5   3    3.28    1.14
  -6   5  -3    3.24    1.20
  -6  -5   3    2.02    0.95
  -6  -5   3    4.31    1.29
   6   5   3    3.94    0.88
   6   5   3    4.25    2.70
  -6  -5   3    4.13    2.64
  -6   5  -3    3.82    1.02
   6   5  -4   10.67    3.23
  -6   5   4   19.12    1.84
  -6   5   4   18.28    1.67
  -6  -5  -4   18.55    1.61
   6  -5   4   12.32    2.97
  -6  -5  -4   18.49    1.59
  -6   5  -4   17.32    1.50
  -6   5  -4   18.23    1.58
  -6  -5   4   18.39    1.65
  -6  -5   4   18.51    1.99
  -6   5  -4   17.66    1.77
   6   5   4   18.10    4.09
  -6  -5   4   19.42    2.02
   6   5   4   17.38    1.58
  -6   5  -4   18.35    1.95
  -6  -5   4   16.48    3.37
   6   5   4   16.61    1.52
  -6  -5  -5   13.82    1.43
  -6   5   5   17.78    1.42
   6  -5   5   14.68    1.25
   6   5  -5   13.19    2.03
  -6   5   5   15.57    1.55
   6   5   5   13.71    1.29
  -6   5  -5   12.68    1.23
   6   5   5   15.09    1.37
  -6  -5   5   11.02    1.74
  -6   5  -5   13.27    1.53
  -6  -5   5   13.34    1.78
  -6  -5   5   13.10    1.36
  -6   5   6    2.18    0.68
   6  -5   6    2.02    0.53
  -6  -5  -6    1.94    0.64
  -6   5   6    1.63    0.82
   6   5  -6    0.51    0.80
  -6   5  -6    1.54    0.62
  -6  -5   6    1.77    0.73
  -6   5  -6    2.22    0.49
  -6  -5   6    2.33    0.84
   6   5   6    2.44    0.63
  -6  -5   6    1.53    0.69
  -6  -5  -7    0.83    0.34
   6  -5   7    0.86    0.32
  -6  -5   7    0.83    0.38
  -6   5  -7    1.29    0.36
   6   5   7    0.48    0.35
  -7   5   0    0.32    1.14
   7   5   0   -0.43    0.85
  -7  -5   0    0.50    0.92
  -7   5   0   -0.16    0.82
  -7  -5   0    0.62    0.91
  -7   5   0   -0.53    1.01
   7  -5   0   -3.71    3.12
   7   5   0   -2.78    2.53
  -7  -5   0   -0.87    3.86
  -7   5   0    0.32    1.17
  -7   5   1   -1.11    3.35
  -7  -5  -1    2.25    1.05
  -7  -5  -1    5.15    3.75
   7   5  -1    1.48    0.86
  -7   5   1    0.34    1.06
   7  -5   1   -1.34    2.95
  -7   5   1    1.86    0.99
  -7   5   1   -0.33    0.79
  -7   5   1   -0.24    0.94
  -7  -5  -1    0.61    1.05
   7   5  -1    2.64    2.49
  -7   5  -1    1.70    0.91
  -7   5  -1    0.30    1.19
   7  -5  -1   -1.00    3.76
  -7  -5   1    2.23    0.85
   7   5   1   -2.23    2.82
  -7  -5   1    1.02    0.94
  -7  -5   1    0.59    1.20
  -7   5  -1    0.32    1.06
   7   5   1    0.65    0.86
  -7   5  -1    0.91    1.02
  -7   5  -1   -1.85    3.48
  -7  -5   1    1.10    0.98
  -7  -5   1    5.32    3.80
   7  -5   2    2.21    3.11
  -7   5   2    3.90    1.14
  -7  -5  -2    3.87    0.84
  -7  -5  -2    6.88    4.23
  -7   5   2    2.85    0.97
  -7   5   2    4.12    1.05
  -7  -5  -2    2.81    1.05
   7   5  -2   -2.47    3.08
  -7   5  -2    4.03    0.94
   7   5   2    3.48    0.91
  -7  -5   2    4.75    0.87
  -7   5  -2    4.57    1.15
  -7   5  -2    4.71    1.15
   7  -5  -2   17.24    8.17
  -7  -5   2    2.52    1.06
  -7  -5   2    3.42    1.28
   7   5   2   12.34    5.96
  -7  -5   2    6.90    4.56
  -7   5  -2    4.70    1.22
  -7  -5   2    2.48    0.87
  -7   5  -2   -1.54    3.61
  -7  -5  -3    8.01    0.98
  -7  -5  -3    7.88    1.05
  -7   5   3    7.73    1.34
  -7  -5   3    5.32    1.01
  -7  -5   3    7.82    1.30
   7   5   3    5.94    1.34
  -7   5  -3    6.48    1.02
   7   5   3    5.67    0.93
  -7   5  -3    8.62    1.26
  -7  -5   3    5.64    0.91
  -7   5  -3    7.19    1.08
  -7  -5   3    7.68    1.28
  -7  -5  -4    9.42    1.26
  -7   5   4    6.01    0.99
  -7  -5  -4    9.24    1.23
  -7  -5   4   11.46    1.13
  -7  -5   4    7.25    1.19
  -7   5  -4    8.14    1.28
  -7  -5   4   10.26    1.61
   7   5   4    9.39    1.24
  -7   5  -4   10.21    1.50
   7   5   4    8.26    1.19
  -7   5  -4   11.71    1.53
   7  -5   5    0.45    0.51
  -7  -5  -5   -0.08    0.59
  -7  -5   5    0.70    0.85
   7   5   5    0.72    0.58
  -7  -5   5    1.60    0.59
  -7  -5   5   -1.54    0.76
  -7   5  -5   -1.13    0.68
   7  -5   6    0.08    0.36
  -7  -5  -6   -0.55    0.39
   7   5   6    0.84    0.61
  -7  -5   6    1.04    0.41
  -7  -5   6   -0.58    0.52
  -7   5  -6    0.00    0.43
  -7  -5   6   -0.15    0.78
  -8   5   0    3.24    1.51
  -8   5   0    4.59    0.84
   8   5   0    3.46    0.83
  -8  -5   0    3.72    1.44
  -8  -5   0    3.16    0.91
  -8   5   0    1.93    0.99
  -8  -5  -1    0.49    0.94
   8   5  -1   -1.08    0.78
  -8  -5  -1   -0.03    0.84
  -8   5   1   -1.19    1.01
  -8   5   1   -0.71    0.90
  -8   5   1   -0.29    1.00
  -8   5   1    0.04    0.70
   8   5   1    0.17    0.76
  -8   5  -1   -0.14    0.93
  -8  -5   1    0.31    0.80
  -8   5  -1    0.04    0.94
  -8   5  -1    0.15    0.81
  -8  -5   1   -0.35    0.86
  -8  -5   1   -0.05    0.82
  -8   5  -1    0.19    0.98
  -8   5   2   18.36    1.54
   8   5  -2   21.57    1.67
  -8   5   2   23.68    1.68
  -8  -5  -2   23.70    1.69
  -8   5   2   22.30    1.86
  -8  -5   2   22.98    1.84
  -8  -5   2   20.77    1.58
  -8   5  -2   21.75    1.94
  -8   5  -2   22.65    1.80
  -8  -5   2   24.21    1.64
  -8  -5   2   19.70    2.00
   8   5   2   18.31    1.65
   8   5   2   20.40    1.66
  -8   5  -2   21.84    1.77
  -8  -5  -3    1.25    0.65
  -8  -5  -3   -0.94    0.59
  -8   5   3    0.33    0.65
  -8   5   3   -0.04    0.76
  -8   5  -3   -0.51    0.76
  -8  -5   3    0.31    0.81
   8   5   3    0.61    0.65
  -8  -5   3    0.95    0.94
  -8   5  -3   -0.23    0.70
  -8  -5   3    0.86    0.65
  -8   5  -3    0.38    0.69
  -8  -5  -4    0.73    0.55
  -8  -5  -4    0.62    0.51
  -8   5  -4    0.08    0.59
  -8   5  -4    1.98    0.65
  -8  -5   4    0.26    0.78
   8   5   4    1.03    0.57
  -8  -5   4    1.94    0.51
  -8   5  -4    1.02    0.75
  -8  -5   4    2.79    0.82
   8   5  -5   -0.57    0.45
   8  -5   5    0.20    0.34
  -8  -5   5    1.04    0.51
  -8  -5   5   -0.82    0.53
   8   5   5   -0.45    0.38
  -8  -5   5   -0.49    0.66
  -8   5  -5    0.85    0.45
  -9  -5   0    0.00    0.64
  -9   5   0   -0.51    0.64
  -9   5   0    0.29    0.52
  -9   5   0    0.62    0.72
  -9   5   1   -0.24    0.66
  -9  -5  -1   -0.14    0.60
  -9   5   1   -0.39    0.60
   9   5  -1   -0.14    0.56
  -9   5   1    0.23    0.51
  -9  -5   1    0.12    0.54
  -9  -5   1   -1.27    0.62
  -9   5  -1   -0.21    0.66
  -9   5  -1    0.19    0.69
  -9   5  -1    0.62    0.68
   9   5   1   -0.30    0.56
  -9   5   2   -0.05    0.57
  -9   5   2    1.14    0.61
   9   5  -2    1.19    0.54
  -9   5   2   -0.23    0.62
  -9  -5  -2    1.74    0.56
  -9  -5   2    1.33    0.57
  -9  -5   2   -0.18    0.60
  -9   5  -2    0.36    0.55
  -9   5  -2    0.67    0.65
  -9   5  -2    1.87    0.61
   9   5   2    0.45    0.53
  -9   5   3    1.49    0.80
  -9   5   3    1.50    0.69
  -9  -5  -3    2.23    0.44
   9   5  -3    2.80    0.52
  -9   5  -3    2.24    0.64
  -9  -5   3    1.66    0.63
  -9   5  -3    1.38    0.47
  -9   5  -3    1.63    0.73
   9   5   3    1.12    0.65
   0   6   0   63.25    3.95
   0  -6   0   74.29    4.31
   0   6   0   65.70    4.05
   0  -6   1   -0.21    0.73
   0  -6   1   -0.87    1.09
   0  -6  -1    0.27    1.04
   0   6   1    0.93    1.27
   0   6   1    0.31    1.03
   0   6  -1    0.43    1.10
   0   6  -1   -0.39    1.22
   0  -6   2  139.13    7.14
   0   6  -2  113.63    8.03
   0  -6  -2  135.03    6.95
   0   6   2  133.35    6.81
   0  -6   2  125.68    6.34
   0   6  -2  121.28    6.61
   0   6   3    0.09    0.72
   0   6   3   -0.48    0.62
   0   6  -3   -0.07    0.84
   0   6  -3    1.18    1.62
   0   6   3    0.19    0.73
   0  -6  -3    0.21    1.31
   0   6   3    0.67    0.81
   0   6  -3    0.57    0.80
   0   6  -3   -0.75    1.74
   0  -6   3   -0.59    1.21
   0   6   3    0.64    1.53
   0  -6   3   -1.28    1.40
   0   6   4   25.60    1.83
   0   6   4   26.60    1.85
   0  -6   4   27.49    1.88
   0   6  -4   30.75    4.06
   0   6   4   28.06    2.01
   0  -6   4   27.00    3.08
   0   6   4   27.26    1.81
   0   6   4   27.82    3.29
   0   6  -4   24.79    2.20
   0   6  -4   27.25    1.94
   0   6  -5    0.65    0.93
   0   6  -5   -1.69    3.04
   0   6   5   -0.17    0.89
   0   6   5   -0.54    0.86
   0   6   5   -0.24    0.80
   0  -6   5    0.75    0.90
   0  -6  -5    0.43    2.93
   0  -6   5   -0.41    2.20
   0   6   5   -0.09    0.94
   0  -6   5    0.91    0.90
   0   6   5   -1.90    0.91
   0   6   6  174.81    8.03
   0   6   6  172.22    7.97
   0   6  -6  167.80    7.90
   0   6   6  171.20    7.95
   0  -6   6  174.88    7.94
   0   6  -6  178.27    8.09
   0   6   6  144.81    9.66
   0  -6   6  160.28    9.86
   0  -6   6  177.61    8.01
   0   6  -6  162.88   11.60
   0   6   6  172.66    7.88
   0   6  -7    0.14    0.86
   0  -6   7   -0.11    0.82
   0   6  -7    0.80    0.67
   0   6   7   -0.11    1.12
   0   6   7    0.79    1.16
   0  -6   7    0.90    0.81
   0   6   7    0.64    0.88
   0   6  -8   60.15    3.05
   0   6   8   64.21    3.12
   0  -6   8   63.98    3.10
   0   6  -8   62.67    3.12
   0   6   8   67.00    3.21
   0   6   8   65.13    3.14
   1   6   0    0.35    1.07
   1   6   0   -0.24    1.02
  -1   6   0   -0.24    0.97
  -1  -6   0    0.43    1.07
  -1   6   0    0.16    1.18
  -1   6   1  404.55   18.79
  -1  -6  -1  433.02   19.48
   1  -6   1  391.11   18.57
   1   6  -1  424.41   18.99
   1   6  -1  411.61   18.98
   1  -6  -1  431.99   19.23
  -1  -6   1  418.39   19.35
  -1  -6   1  383.12   18.41
   1   6   1  408.28   19.02
   1   6   1  409.80   18.99
  -1   6  -1  395.62   18.54
   1   6  -2   -0.17    1.44
  -1   6   2    1.24    1.26
   1   6  -2   -0.55    1.22
   1  -6   2    1.22    1.10
  -1  -6  -2    0.88    1.38
  -1   6   2    0.28    1.15
   1   6   2   -1.71    1.19
  -1   6  -2    0.42    1.32
  -1  -6   2    0.85    0.91
   1   6   2   -0.26    1.21
   1   6  -3  152.74    8.52
  -1   6   3  158.34    7.47
  -1   6   3  162.20    8.59
  -1   6   3  160.24    8.31
   1  -6   3  165.14    8.24
  -1  -6  -3  150.88    8.58
   1   6  -3  160.99    8.36
   1  -6   3  169.33    8.58
   1   6  -3  162.04    7.60
  -1   6   3  161.62    7.36
  -1   6   3  161.93    7.40
  -1   6   3  152.58    7.47
   1   6   3  160.94    7.47
   1   6   3  156.82    7.43
   1   6   3  162.16    7.38
  -1   6  -3  142.89    7.76
   1   6   3  161.89    7.43
   1   6   3  169.70    8.46
  -1  -6   3  154.74    8.00
  -1  -6   3  160.01    7.54
   1  -6  -3  181.59    8.47
  -1   6  -3  155.93    7.59
  -1   6  -3  171.82    9.36
  -1  -6   3  172.37    9.08
   1  -6   4   31.96    3.33
  -1   6   4   30.11    2.01
   1   6  -4   22.06    4.34
  -1   6   4   28.68    1.96
   1   6  -4   25.16    3.95
   1  -6   4   31.35    2.05
  -1   6   4   34.06    3.63
   1   6  -4   29.95    2.11
  -1   6   4   29.91    2.14
  -1  -6  -4   30.19    4.38
  -1   6   4   30.14    1.93
  -1   6  -4   31.31    2.26
   1   6   4   29.66    2.14
   1   6   4   32.53    1.99
   1   6   4   33.97    3.53
  -1  -6   4   32.46    2.21
  -1  -6   4   31.24    3.37
   1   6   4   32.37    1.92
   1   6   4   28.13    2.00
   1   6   4   30.73    2.11
  -1   6  -4   32.08    2.09
  -1   6  -4   35.89    4.38
  -1  -6   4   31.25    1.96
   1   6  -5   70.53    3.65
   1  -6   5   67.81    5.54
  -1   6   5   72.31    3.60
   1   6  -5   82.59   10.50
  -1   6   5   66.19    3.60
  -1   6   5   58.37    5.38
  -1   6   5   72.43    3.73
  -1   6   5   66.79    3.72
  -1   6   5   69.67    3.75
   1  -6   5   69.62    3.63
  -1   6  -5   67.35    6.57
   1   6   5   72.68    3.74
   1   6   5   73.05    3.75
  -1  -6   5   71.11    3.82
  -1  -6   5   69.56    3.63
  -1   6  -5   72.31    3.74
   1   6   5   75.90    5.15
  -1   6  -5   70.75    3.78
   1  -6  -5   54.66    6.88
   1   6   5   69.96    3.61
   1   6   5   72.57    3.60
  -1  -6   5   76.80    5.28
   1  -6   6    0.32    2.78
  -1   6   6    3.04    1.05
   1  -6   6    3.52    1.02
  -1   6   6    2.48    0.90
  -1   6   6    3.75    0.99
  -1   6   6    4.29    3.01
  -1   6   6    2.64    0.95
   1  -6   6    3.84    0.96
   1   6  -6    5.83    0.98
   1   6  -6    0.85    5.03
  -1  -6  -6   -2.08    3.87
   1  -6  -6   -0.82    3.90
  -1  -6   6    2.99    1.08
   1   6   6    3.76    0.96
   1   6   6    5.75    2.89
  -1   6  -6    4.96    1.08
  -1  -6   6    4.26    2.77
   1   6   6    3.48    1.00
  -1   6  -6    2.33    3.58
  -1   6  -6    4.95    0.97
   1   6   6    3.64    0.93
  -1  -6   6    4.55    0.96
   1   6   6    4.06    0.98
  -1   6   7  153.59    7.28
  -1   6   7  153.10    7.32
  -1   6   7  158.72    7.18
   1  -6   7  157.77    7.23
   1   6  -7  146.76    7.19
  -1   6   7  158.79    7.34
  -1  -6  -7  149.11    7.14
   1   6  -7  167.34    7.38
  -1   6  -7  160.47    7.21
  -1  -6   7  147.26    7.22
   1   6   7  158.53    7.22
  -1  -6   7  155.63    7.20
   1   6   7  149.86    7.22
   1   6   7  158.20    7.20
   1   6   7  161.47    7.30
  -1   6  -7  153.04    7.22
   1  -6   8   -0.20    0.47
  -1   6   8   -0.16    0.55
  -1   6   8   -0.54    0.59
   1   6  -8   -0.36    0.88
  -1   6   8   -0.18    0.64
  -1   6  -8    0.73    0.61
  -1  -6   8    0.03    0.55
   1   6   8    0.08    0.60
   1   6   8   -0.13    0.53
  -1   6  -8   -0.26    0.48
   1   6   8   -0.33    0.57
   2   6   0  391.09   17.36
   2   6   0  377.25   17.71
  -2  -6   0  368.79   17.98
   2  -6   0  364.35   17.10
  -2   6   0  366.81   17.55
  -2  -6  -1   25.66    3.03
   2   6  -1   25.03    2.75
   2  -6   1   22.71    2.39
  -2   6   1   22.93    2.19
   2   6  -1   24.36    2.55
  -2   6   1   28.06    2.80
  -2  -6   1   29.47    3.24
  -2   6  -1   26.44    2.79
  -2  -6   1   24.18    2.01
   2   6   1   27.86    2.60
   2   6   1   25.43    2.63
  -2   6   2  242.79   11.94
  -2   6   2  231.06   11.53
   2   6  -2  237.71   11.09
   2   6  -2  261.49   11.94
   2   6  -2  254.68   11.83
  -2  -6  -2  229.16   12.28
  -2   6   2  245.80   10.97
  -2   6   2  245.74   11.01
  -2   6  -2  247.04   11.03
  -2   6  -2  245.25   12.21
  -2  -6   2  244.20   11.38
  -2   6  -2  244.75   11.15
  -2  -6   2  231.40   11.12
   2   6   2  265.85   12.02
   2   6   2  237.62   11.04
  -2  -6   2  231.08   12.35
   2   6   2  244.45   11.04
   2   6  -3   24.29    3.72
  -2   6   3   23.81    1.72
   2   6  -3   24.42    2.18
  -2   6   3   23.87    3.26
  -2   6   3   24.39    1.94
  -2   6   3   23.95    1.92
   2  -6   3   25.45    3.04
   2   6  -3   29.84    3.34
   2  -6   3   26.01    1.89
  -2   6   3   26.75    1.60
  -2  -6  -3   26.77    3.51
  -2   6   3   26.50    2.93
   2  -6  -3   31.19    2.97
  -2  -6   3   30.11    2.67
  -2  -6   3   20.63    3.93
  -2   6  -3   26.37    2.01
  -2  -6   3   25.54    1.87
  -2   6  -3   28.50    1.83
   2   6   3   25.55    1.90
   2   6   3   27.49    1.76
  -2   6  -3   23.74    2.12
  -2   6  -3   28.61    2.06
  -2   6  -3   31.21    4.01
  -2  -6   3   31.10    2.01
   2   6   3   26.57    1.97
  -2   6  -3   25.27    1.92
   2   6   3   29.39    1.72
   2   6   3   25.37    2.86
  -2  -6  -4   13.73    2.91
  -2   6   4   16.04    1.73
   2  -6   4   13.84    1.57
   2  -6   4   18.34    3.52
   2   6  -4   17.67    2.93
   2   6  -4   19.36    3.16
  -2   6   4   16.41    1.59
  -2  -6  -4   16.96    5.33
  -2   6   4   15.09    1.56
  -2   6   4   15.14    1.41
   2  -6   4   10.08    2.13
  -2   6   4   17.29    2.42
  -2  -6   4   22.22    2.95
   2   6   4   16.88    1.46
  -2   6  -4   20.11    4.22
   2   6   4   15.34    1.59
   2   6   4   16.59    3.06
   2   6   4   16.66    1.49
   2   6   4   15.01    1.74
   2   6   4   17.69    1.64
  -2   6  -4   17.77    1.63
  -2  -6   4   14.51    1.77
  -2   6  -4   15.96    1.75
  -2  -6   4   19.19    1.50
  -2   6  -4   17.61    1.90
  -2  -6   4   13.76    2.25
  -2   6   5    1.58    0.82
  -2   6   5    1.13    0.79
   2  -6   5    0.76    0.90
  -2   6   5    1.50    0.98
  -2   6   5    0.10    0.87
   2   6  -5    1.66    3.21
  -2   6   5    0.67    0.86
  -2  -6   5    1.37    0.87
  -2  -6   5    1.34    1.34
   2   6   5    2.27    1.05
  -2  -6   5    1.41    1.10
   2   6   5    1.11    0.97
  -2   6  -5    3.95    4.49
   2   6   5    1.53    2.88
   2   6   5    1.50    0.79
   2   6   5    1.35    0.82
  -2   6  -5    1.09    0.96
  -2   6  -5    0.11    0.93
  -2   6   6   55.16    3.06
  -2   6   6   58.23    3.26
   2  -6   6   61.07    3.15
   2  -6   6   61.39    6.00
  -2   6   6   56.54    3.26
  -2  -6  -6   55.41    6.76
  -2   6   6   57.53    3.25
  -2   6   6   53.79    6.13
   2  -6   6   60.92    3.17
   2   6   6   58.03    3.18
   2   6   6   58.28    3.08
  -2  -6   6   48.54    6.10
  -2   6  -6   60.98    3.22
   2   6   6   51.09    5.26
  -2   6  -6   55.58    3.20
   2   6   6   62.73    3.23
  -2  -6   6   60.92    3.18
   2   6   6   57.82    3.10
  -2   6  -6   52.48    7.49
  -2  -6   6   62.81    3.35
   2  -6   7    2.39    0.79
   2   6  -7    2.50    1.10
  -2   6   7    1.45    0.81
  -2   6   7    2.22    0.99
  -2  -6  -7    2.92    0.71
  -2   6   7    2.83    0.79
  -2   6   7    2.93    0.96
  -2  -6   7    3.01    0.80
  -2  -6   7    2.21    0.94
   2   6   7    1.82    0.77
   2   6   7    1.35    1.32
  -2   6  -7    3.20    0.77
   2   6   7    2.58    0.79
   2   6  -8   45.98    2.41
  -2   6   8   44.41    2.32
  -2   6   8   45.17    2.34
  -2   6   8   45.63    2.33
   2  -6   8   42.86    2.22
  -2  -6  -8   47.32    2.48
  -2   6  -8   43.04    2.25
   2   6   8   45.53    2.25
   2   6   8   46.37    2.31
  -2  -6   8   45.37    2.28
   3   6   0    1.21    1.54
  -3   6   0    0.36    0.68
   3   6   0    0.33    1.26
  -3   6   0    0.15    0.72
  -3   6   0    0.62    1.39
  -3  -6   0    1.51    1.74
   3   6   0    0.68    0.66
   3  -6   0   -0.41    1.45
  -3   6   0    0.62    1.01
  -3   6   1  334.34   15.24
   3   6  -1  355.10   15.42
  -3   6   1  358.75   15.32
  -3   6   1  328.33   15.35
   3   6  -1  350.04   16.20
  -3  -6  -1  302.04   16.70
  -3   6   1  368.99   16.37
   3  -6  -1  314.21   15.93
  -3   6  -1  335.79   15.26
  -3  -6   1  331.05   15.39
  -3   6  -1  360.79   16.54
  -3   6  -1  349.67   15.34
  -3  -6   1  340.19   15.58
  -3   6  -1  351.46   15.41
   3   6   1  368.05   16.25
  -3  -6   1  324.52   16.90
   3   6   1  333.37   15.33
  -3   6  -1  328.12   15.41
  -3  -6  -2   42.91    4.62
  -3   6   2   53.94    3.85
  -3   6   2   54.86    2.79
   3   6  -2   52.23    2.92
  -3   6   2   55.90    2.88
   3  -6   2   54.04    3.98
  -3   6   2   54.56    4.14
   3   6  -2   51.14    4.16
  -3   6   2   57.05    2.72
  -3  -6  -2   51.39    3.20
  -3   6   2   50.62    3.08
  -3   6  -2   53.41    2.96
   3   6   2   53.19    2.81
  -3  -6   2   42.24    4.53
  -3   6  -2   55.03    2.79
  -3   6  -2   58.86    4.64
   3   6   2   58.76    3.98
   3   6   2   53.81    2.97
   3   6   2   57.77    2.94
  -3   6  -2   55.54    2.99
  -3   6  -2   50.84    2.91
  -3  -6   2   57.96    3.66
  -3  -6   2   52.13    2.93
   3   6  -3   48.78    2.79
   3  -6   3   51.34    4.14
  -3   6   3   45.81    2.86
  -3   6   3   46.67    2.65
  -3  -6  -3   43.46    2.91
  -3  -6  -3   42.12    5.18
  -3   6   3   47.30    2.59
   3   6  -3   45.36    4.46
  -3   6   3   46.73    2.48
  -3   6   3   51.94    4.26
  -3   6   3   44.40    3.80
  -3  -6  -3   40.61    4.70
   3   6   3   49.76    3.87
  -3  -6   3   36.41    4.96
  -3  -6   3   51.78    2.73
   3   6   3   45.13    2.85
  -3  -6   3   47.21    2.78
   3   6   3   50.97    2.72
  -3   6  -3   52.15    2.97
  -3   6  -3   48.12    2.64
  -3  -6   3   52.45    3.66
   3   6   3   48.34    2.58
   3   6   3   49.03    2.71
  -3   6  -3   48.14    2.76
  -3   6  -3   46.34    2.71
   3  -6  -3   51.31    4.12
  -3   6  -3   49.85    5.01
  -3  -6  -4    4.43    4.26
  -3   6   4    1.34    0.77
   3   6  -4    2.65    2.78
  -3   6   4   -0.02    2.04
  -3  -6  -4   -4.45    2.98
   3  -6   4    2.50    0.80
  -3   6   4    2.26    1.02
  -3   6   4    0.45    0.83
   3  -6   4    0.32    1.87
   3   6  -4    2.67    1.13
  -3  -6   4    0.96    0.97
  -3   6  -4    1.75    0.90
   3   6   4    0.90    0.85
  -3  -6   4    1.43    0.80
   3   6   4    0.82    1.15
  -3  -6   4   -1.41    1.73
   3   6   4    2.49    1.79
  -3   6  -4   -1.75    2.75
  -3   6  -4    2.27    1.67
  -3   6  -4    1.30    0.95
  -3  -6   4    1.41    1.20
   3   6   4    1.63    0.71
   3   6  -5   66.19    7.99
  -3   6   5   75.45    3.85
  -3   6   5   69.21    3.85
   3   6  -5   80.56    4.17
  -3   6   5   76.92    6.19
   3  -6   5   75.01    3.75
  -3   6   5   69.83    3.71
  -3   6   5   76.38    3.92
   3  -6   5   76.45    5.72
  -3  -6   5   73.09    3.76
  -3   6  -5   77.98    3.86
   3   6   5   70.20    5.73
  -3  -6   5   77.97    4.00
   3   6   5   73.80    3.73
  -3  -6   5   70.45    5.70
  -3   6  -5   87.44    7.57
   3  -6  -5   56.94    8.08
   3   6   5   72.52    3.94
  -3  -6   5   66.53    4.19
  -3   6  -5   66.68    3.87
   3   6   5   72.74    3.71
   3   6   5   78.63    3.79
   3  -6   6    4.18    3.46
  -3   6   6    0.70    0.96
   3   6  -6   -0.67    1.20
  -3   6   6   -0.26    0.87
  -3   6   6   -4.32    5.46
  -3   6   6    1.02    0.90
  -3  -6  -6    0.98    0.87
   3  -6   6    1.06    0.80
   3   6   6   -0.88    0.68
   3   6   6    0.20    0.68
  -3  -6   6   -1.04    0.97
   3   6   6    6.39    3.42
  -3   6  -6    0.59    0.85
  -3  -6   6    0.73    0.79
  -3  -6   6    4.43    4.41
   3   6   6    0.58    0.84
   3   6   6    0.69    1.09
  -3   6   7   47.34    2.44
  -3   6   7   51.42    2.65
  -3  -6  -7   46.59    2.49
   3   6  -7   50.07    2.85
  -3   6   7   47.73    2.70
  -3   6   7   48.91    2.67
   3  -6   7   46.53    2.51
  -3   6  -7   46.76    2.54
   3   6   7   49.10    2.52
  -3  -6   7   49.07    2.60
  -3  -6   7   48.37    2.57
   3   6   7   47.62    2.57
  -3   6   8    2.08    0.57
  -3   6   8    1.44    0.57
   3   6  -8    2.65    0.63
  -3  -6  -8    1.35    0.46
   3  -6   8    1.20    0.40
   3   6   8    1.87    0.43
  -3   6  -8    1.14    0.41
   3   6   8    2.19    0.64
  -3  -6   8    0.47    0.57
  -4   6   0  264.93   11.61
   4  -6   0  263.27   12.61
  -4   6   0  247.30   11.72
  -4  -6   0  239.15   13.50
  -4   6   0  258.26   11.53
   4   6   0  267.70   11.61
  -4  -6   0  238.46   11.80
  -4   6   0  262.34   11.72
  -4  -6   0  244.88   11.64
   4   6   0  244.68   11.59
   4   6   0  267.70   12.62
  -4   6   0  269.77   12.87
   4   6  -1   47.28    2.70
  -4   6   1   47.30    2.90
  -4  -6  -1   42.23    2.88
  -4  -6  -1   48.97    4.70
   4   6  -1   51.64    4.07
  -4   6   1   51.59    2.55
  -4   6   1   53.89    2.69
   4  -6   1   47.53    4.12
  -4   6   1   45.80    3.99
  -4   6   1   47.51    2.70
  -4   6  -1   52.59    2.76
  -4  -6   1   55.41    3.90
  -4  -6   1   46.18    3.00
  -4   6  -1   47.26    2.80
   4  -6  -1   46.29    5.22
  -4   6  -1   49.74    4.47
  -4   6  -1   48.80    2.81
   4   6   1   51.67    3.84
  -4   6  -1   47.18    2.68
  -4  -6   1   48.72    2.75
  -4  -6   1   39.17    4.85
   4   6   1   48.20    2.64
  -4   6  -1   51.63    2.58
  -4   6   2   34.15    2.09
  -4   6   2   37.71    2.21
  -4   6   2   36.10    2.19
  -4   6   2   41.26    3.90
  -4   6   2   35.18    2.51
  -4  -6  -2   35.68    2.50
   4   6  -2   37.44    2.29
   4  -6   2   36.73    3.77
  -4  -6  -2   32.79    4.64
   4   6  -2   38.47    3.97
  -4   6  -2   38.23    2.39
  -4   6  -2   41.64    2.46
   4   6   2   40.16    2.26
   4   6   2   39.59    2.22
  -4   6  -2   39.53    2.17
  -4  -6   2   32.15    3.44
  -4  -6   2   33.48    2.60
  -4  -6   2   36.12    2.31
  -4   6  -2   40.23    2.42
   4   6   2   40.06    3.56
  -4   6  -2   33.28    4.43
  -4  -6   2   32.68    4.75
   4  -6   3   -0.95    1.87
  -4   6   3   -0.53    0.89
  -4   6   3   -0.86    1.07
   4   6  -3   -1.48    2.33
  -4   6   3   -1.35    0.73
  -4  -6  -3    1.34    2.68
  -4   6   3    0.52    0.89
  -4  -6   3    1.21    0.91
  -4   6  -3    1.31    0.75
  -4  -6   3   -0.22    1.26
  -4  -6   3    2.65    3.18
  -4   6  -3   -0.36    0.95
  -4  -6   3    1.56    1.96
  -4   6  -3    1.15    2.52
   4   6   3   -1.46    1.69
  -4   6  -3    0.66    0.94
   4   6   3   -0.51    0.68
  -4  -6   3    0.42    0.89
  -4  -6  -4   95.45    4.96
  -4   6   4   93.94    4.81
  -4   6   4   98.37    4.84
   4   6  -4  107.20    7.29
  -4   6   4   97.03    4.82
  -4  -6  -4   94.69   10.26
  -4   6   4   94.64    5.01
   4  -6   4   99.95    6.43
   4   6  -4  101.84    5.01
  -4   6  -4  103.88    4.93
   4   6   4  102.74    4.85
  -4  -6   4  103.64    4.94
  -4   6  -4  100.41    4.92
  -4   6  -4   98.39    4.99
  -4  -6   4   97.81    5.04
   4   6   4  103.56    6.56
  -4  -6   4   84.10    6.26
   4   6   4  105.53    4.89
  -4   6  -4  110.30    8.17
  -4   6  -4  106.42    5.00
   4   6  -5    3.73    3.76
  -4   6   5   -0.13    0.94
  -4   6   5   -1.37    0.79
   4  -6   5    0.32    2.65
   4  -6   5    0.01    0.70
  -4   6   5   -0.66    0.86
   4   6  -5    2.91    1.20
  -4   6  -5    2.37    5.27
   4   6   5    0.51    0.76
  -4   6  -5    0.02    0.78
  -4   6  -5    1.00    0.93
   4   6   5   -0.34    0.75
  -4  -6   5    0.15    0.79
  -4  -6   5   -0.10    0.98
   4  -6  -5    5.79    6.75
   4   6   5   -2.83    2.61
  -4  -6   5    6.08    2.82
  -4   6   6   75.63    3.77
  -4   6   6   66.27    3.69
  -4   6   6   70.40    3.77
   4   6  -6   80.21    3.98
   4  -6   6   71.89    3.65
  -4  -6  -6   71.48    3.85
  -4   6   6   69.09    3.76
  -4  -6   6   74.16    3.70
  -4   6  -6   72.87    3.71
   4   6   6   78.01    3.70
   4   6   6   73.19    3.60
  -4  -6   6   73.61    3.85
  -4   6  -6   78.85    3.91
  -4   6   7    6.21    0.84
  -4  -6  -7    5.88    0.90
   4   6  -7    4.67    0.91
   4  -6   7    5.40    0.83
  -4   6   7    5.93    0.85
   4   6   7    5.20    0.66
   4   6   7    6.08    0.92
  -4  -6   7    5.73    0.80
  -4  -6   7    7.76    0.97
  -4  -6  -8   38.66    1.99
   4   6  -8   38.98    1.93
   4  -6   8   38.12    1.80
  -4   6   8   36.41    1.86
  -4   6   8   38.18    1.87
  -4  -6   8   37.50    1.83
  -4   6  -8   37.21    1.79
   4   6   8   34.05    1.80
  -5   6   0   -1.20    0.77
  -5  -6   0    1.23    2.79
  -5   6   0    1.42    1.22
  -5   6   0    2.12    2.42
  -5   6   0    0.98    0.73
  -5  -6   0   -0.17    1.03
   5  -6   0    1.07    2.36
  -5  -6   0    0.33    0.82
  -5   6   0   -1.04    2.16
   5   6   0    1.57    1.11
   5   6   0   -2.79    1.57
  -5   6   1   59.42    2.97
  -5   6   1   54.22    3.58
  -5  -6  -1   56.24    3.32
  -5   6   1   59.28    3.19
  -5  -6  -1   52.29    5.52
  -5   6   1   46.44    4.84
  -5   6   1   55.79    3.18
   5   6  -1   56.38    4.78
   5  -6   1   58.77    5.01
  -5   6  -1   61.50    3.24
  -5   6  -1   62.81    5.51
  -5  -6   1   53.84    3.27
  -5  -6   1   55.80    5.80
  -5   6  -1   62.38    3.23
  -5   6  -1   58.63    5.59
  -5   6  -1   55.85    3.32
   5   6   1   56.69    3.07
  -5   6  -1   59.78    3.08
  -5   6  -1   59.49    3.28
   5   6   1   62.11    4.58
   5  -6  -1   53.71    5.70
  -5  -6   1   65.36    3.83
  -5   6   2    3.56    0.84
  -5  -6  -2    0.28    0.95
  -5  -6  -2    1.05    2.74
   5   6  -2    3.53    2.21
  -5   6   2    0.45    0.81
  -5   6   2    1.77    1.16
  -5   6   2    1.07    0.83
   5  -6   2    3.32    2.75
  -5  -6   2    0.71    1.06
  -5   6  -2    0.88    1.03
  -5   6  -2   -0.98    3.18
   5   6   2    3.46    0.87
   5   6   2    2.78    1.98
  -5  -6   2    0.19    0.90
  -5   6  -2    1.69    0.73
  -5  -6   2    3.16    1.36
  -5  -6   2    1.46    2.25
  -5   6  -2    2.08    1.07
  -5   6  -2    0.60    0.99
  -5  -6   2    1.09    3.37
   5  -6   3   43.63    4.52
  -5   6   3   34.83    2.30
  -5  -6  -3   39.25    2.32
   5   6  -3   38.59    2.45
  -5  -6  -3   40.49    2.55
   5   6  -3   39.35    4.73
  -5   6   3   36.22    2.19
  -5   6   3   35.34    2.26
  -5  -6  -3   34.17    5.91
  -5   6  -3   40.05    2.80
  -5  -6   3   39.27    2.27
  -5   6  -3   35.59    2.51
   5   6   3   34.70    2.53
  -5  -6   3   40.77    6.42
  -5  -6   3   35.85    2.47
  -5   6  -3   37.81    2.48
  -5  -6   3   37.73    2.83
  -5   6  -3   40.02    2.42
  -5   6  -3   29.03    5.89
   5   6   3   36.79    4.26
  -5  -6   3   35.47    2.48
   5   6   3   39.02    2.29
   5   6  -4    4.28    1.10
   5   6  -4    1.79    3.05
  -5  -6  -4   -1.64    6.80
  -5  -6  -4    4.13    1.03
  -5   6   4    2.66    1.15
  -5  -6  -4    3.81    0.95
   5  -6   4   -0.45    2.19
  -5  -6   4    2.06    1.40
  -5  -6   4    4.30    0.91
  -5   6  -4    2.31    3.70
   5   6   4    3.32    0.86
  -5  -6   4    2.41    1.03
   5   6   4    1.89    3.40
  -5   6  -4    2.98    0.98
  -5   6  -4    1.03    1.14
  -5  -6   4    2.70    2.99
  -5   6  -4    2.58    0.95
  -5   6  -4    3.01    0.90
   5   6   4    2.36    0.79
  -5   6   5   75.79    4.05
   5  -6   5   80.47    3.86
  -5   6   5   78.28    4.00
   5   6  -5   77.76    4.27
  -5  -6  -5   79.10    3.94
  -5  -6   5   80.00    4.29
  -5   6  -5   84.04    3.93
   5   6   5   76.51    3.96
  -5  -6   5   77.98    4.15
  -5   6  -5   74.75    4.14
   5   6   5   79.71    3.91
  -5  -6   5   79.26    4.01
  -5   6   6    3.13    0.85
  -5   6   6    4.19    0.76
   5  -6   6    3.52    0.68
  -5  -6  -6    4.03    0.73
   5   6  -6    5.41    0.96
  -5  -6   6    3.27    0.73
  -5   6  -6    1.80    0.72
  -5   6  -6    1.98    0.62
   5   6   6    3.06    0.73
   5   6   6    2.06    0.60
  -5  -6   6    4.36    0.90
  -5   6   7   38.28    2.21
   5  -6   7   38.68    1.99
   5   6  -7   38.69    2.60
  -5  -6  -7   38.75    2.00
  -5   6   7   40.36    2.09
  -5  -6   7   43.87    2.17
   5   6   7   43.71    2.26
  -5  -6   7   39.63    2.06
  -5   6  -7   39.91    2.00
  -6  -6   0  166.86    7.90
  -6   6   0  151.75   10.14
  -6  -6   0  158.86    7.76
  -6   6   0  167.24    7.72
   6   6   0  163.43    9.26
  -6   6   0  170.34    7.80
  -6   6   0  172.45    7.92
  -6  -6   0  171.70   10.37
   6   6   0  164.98    7.74
  -6   6   0  162.51    7.92
   6  -6   0  175.74   11.16
  -6   6   1    5.28    1.17
  -6   6   1    4.84    0.91
  -6  -6  -1    4.13    1.14
  -6   6   1    3.57    1.01
  -6  -6  -1    4.23    3.11
   6  -6   1    3.91    2.96
   6   6  -1    8.18    2.25
  -6   6   1    3.37    1.18
  -6  -6   1    6.42    3.30
   6  -6  -1    3.05    4.30
  -6  -6   1    3.48    1.40
  -6   6  -1    5.42    1.28
  -6   6  -1    6.50    1.32
   6   6   1    8.46    2.50
  -6  -6   1    4.06    1.07
  -6   6  -1    5.42    0.90
  -6   6  -1    3.10    1.22
  -6   6  -1    5.34    3.31
   6   6   1    4.28    0.91
  -6   6  -1    3.46    0.92
  -6  -6   1    2.22    0.93
  -6   6   2   45.27    2.95
  -6   6   2   48.32    2.74
   6   6  -2   33.47    5.75
  -6   6   2   48.32    2.76
   6  -6   2   52.57    6.20
  -6  -6  -2   50.35    2.88
  -6  -6  -2   48.36    2.59
  -6   6   2   43.39    2.65
  -6  -6  -2   35.24    5.42
  -6   6  -2   48.31    3.07
  -6  -6   2   50.76    2.88
  -6  -6   2   43.71    2.85
   6   6   2   48.20    2.67
  -6  -6   2   51.03    7.37
  -6  -6   2   47.23    3.05
   6   6   2   41.32    4.92
  -6   6  -2   49.99    2.94
  -6  -6   2   45.51    2.67
   6   6   2   48.36    2.66
  -6   6  -2   50.58    2.92
  -6   6  -2   46.54    2.60
  -6  -6  -3    0.06    0.79
  -6  -6  -3    1.61    0.90
   6   6  -3    5.04    3.15
   6  -6   3    0.27    2.85
  -6   6   3   -1.36    1.21
  -6   6   3    0.19    0.76
   6   6   3   -3.79    2.94
  -6  -6   3   -0.94    0.75
   6   6   3   -0.24    0.72
   6   6   3   -0.53    0.81
  -6  -6   3    0.56    1.13
  -6   6  -3    0.18    1.13
  -6  -6   3   -0.38    1.03
  -6  -6   3   -0.25    1.26
  -6   6  -3   -0.30    0.87
  -6   6  -3   -1.39    0.72
  -6   6  -3    0.48    0.86
   6   6  -4   59.06    3.44
  -6  -6  -4   75.70    3.88
  -6  -6  -4   65.32    3.24
   6   6   4   62.64    3.37
  -6  -6   4   62.26    3.51
  -6  -6   4   64.29    4.23
  -6   6  -4   64.51    3.50
  -6   6  -4   56.20    3.74
  -6   6  -4   62.49    3.42
   6   6  -5   11.81    1.57
   6  -6   5    8.15    1.03
  -6  -6  -5    9.16    1.15
  -6   6  -5    6.28    0.93
   6   6   5   11.00    1.10
  -6  -6   5    8.49    1.45
  -6  -6   5    8.08    1.12
  -6  -6   5    7.20    1.11
   6   6   5    8.08    1.00
  -6   6  -5    7.98    1.25
  -6  -6  -6   27.07    1.56
   6   6  -6   26.14    2.24
   6  -6   6   26.04    1.48
  -6   6  -6   25.83    1.48
   6   6   6   27.71    1.54
  -6   6  -6   27.86    1.57
  -6  -6   6   28.17    1.72
  -6  -6   6   27.97    1.58
  -7   6   0   -0.23    1.09
  -7   6   0   -0.47    0.80
   7  -6   0    5.25    4.53
  -7  -6   0    0.10    3.90
  -7   6   0   -0.68    0.98
   7   6   0    1.46    0.94
  -7  -6   0   -0.71    0.86
   7   6   0   -2.61    2.83
  -7  -6   0   -0.68    0.86
  -7   6   0    1.22    1.12
  -7  -6  -1   73.53    7.73
   7   6  -1   54.86    6.32
   7  -6   1   53.19    7.34
  -7   6   1   63.15    3.49
  -7   6   1   60.18    3.37
  -7  -6  -1   73.96    3.57
   7   6  -1   66.16    3.47
  -7   6   1   62.99    3.59
  -7   6   1   63.80    3.66
   7   6   1   75.95    6.40
  -7  -6   1   68.57    3.53
   7   6   1   62.48    3.42
  -7   6  -1   64.35    3.36
  -7   6  -1   65.43    3.63
  -7   6  -1   65.65    3.69
  -7  -6   1   68.12    3.55
  -7   6  -1   63.24    3.60
  -7  -6   1   66.80    7.96
  -7  -6  -2    0.57    1.01
  -7   6   2   -0.45    0.90
  -7   6   2   -0.33    0.83
  -7  -6  -2    0.46    0.93
  -7   6   2    0.91    0.99
  -7   6   2   -0.90    1.03
  -7  -6   2    0.11    1.17
  -7   6  -2   -0.22    0.97
  -7  -6   2    1.30    0.87
   7   6   2    1.21    0.75
  -7  -6   2    1.57    1.26
   7   6   2    1.68    0.81
  -7   6  -2    0.45    1.06
  -7   6  -2    1.29    1.03
  -7  -6   2   -0.23    0.97
  -7  -6  -3   22.51    1.68
  -7  -6  -3   23.65    1.57
  -7   6   3   19.33    1.59
  -7   6   3   21.78    1.85
  -7   6  -3   19.80    1.67
  -7  -6   3   23.65    1.63
  -7   6  -3   22.12    1.75
  -7  -6   3   20.46    2.05
   7   6   3   23.12    1.57
  -7   6  -3   21.35    1.95
  -7  -6   3   21.36    1.95
  -7  -6   3   19.03    1.60
   7   6   3   22.83    1.60
  -7  -6  -4    0.54    0.58
  -7  -6  -4   -0.48    0.60
   7  -6   4   -0.35    0.49
  -7  -6   4    1.13    0.62
  -7   6  -4    0.25    0.70
  -7  -6   4    0.43    0.98
  -7   6  -4   -0.35    0.61
   7   6   4    0.87    0.69
   7   6   4    0.28    0.62
  -7  -6   4   -0.73    0.86
  -7   6  -4   -0.94    0.81
  -7  -6  -5   21.61    1.32
   7  -6   5   20.73    1.25
   7   6   5   20.36    1.32
  -7  -6   5   20.66    1.37
  -7  -6   5   20.93    2.03
  -7   6  -5   21.55    1.42
  -7  -6   5   21.47    1.52
   7  -6   6    4.53    0.49
  -7  -6  -6    4.53    0.54
   7   6  -6    4.94    0.71
  -7   6  -6    4.30    0.68
  -7  -6   6    5.04    0.76
   7   6   6    3.50    0.52
  -8  -6   0   31.42    1.98
  -8   6   0   31.70    2.16
   8   6   0   30.03    1.95
  -8   6   0   31.59    2.17
  -8   6   0   31.73    1.83
  -8  -6   0   28.78    2.35
  -8   6   0   25.80    2.00
   8   6  -1    0.66    0.71
  -8   6   1   -0.21    0.66
  -8   6   1    0.60    0.85
  -8   6   1   -0.31    0.84
  -8  -6  -1    0.96    0.79
  -8   6   1   -1.47    0.72
  -8   6  -1   -1.02    0.82
  -8   6  -1    0.20    0.86
   8   6   1   -0.47    0.65
  -8  -6   1    0.57    0.78
  -8  -6   1   -0.24    0.71
  -8   6  -1   -0.56    0.89
  -8   6   2   35.05    2.19
   8   6  -2   39.39    2.15
  -8  -6  -2   40.23    2.18
  -8   6   2   34.83    2.08
  -8   6   2   34.71    2.14
  -8  -6   2   34.95    2.21
  -8   6  -2   37.95    2.19
  -8   6  -2   35.90    2.18
  -8  -6   2   38.94    2.09
   8   6   2   35.77    2.07
   8   6   2   35.15    2.00
  -8   6  -2   34.94    2.25
  -8  -6  -3    7.71    0.99
   8   6  -3    6.75    1.09
  -8   6   3    6.60    1.17
  -8   6  -3    7.14    1.03
  -8  -6   3    6.97    0.94
  -8   6  -3    8.88    1.25
  -8   6  -3    7.23    1.06
   8   6   3    8.87    0.95
  -8  -6  -4   21.25    1.26
   8  -6   4   20.93    1.20
  -8  -6  -4   19.06    1.37
   8   6  -4   21.72    1.33
  -8   6  -4   21.79    1.40
  -8   6  -4   19.32    1.42
  -8  -6   4   22.98    1.47
   8   6   4   23.68    1.33
   9   6   0    1.07    0.47
  -9   6   0   -1.04    0.61
  -9  -6   0   -0.09    0.51
  -9   6   0   -0.91    0.53
   9   6   0   -0.19    0.53
   9   6  -1    9.86    0.97
  -9  -6  -1    9.13    0.93
  -9   6   1    7.88    0.98
  -9   6   1    6.98    1.04
  -9   6  -1    7.72    0.95
  -9   6  -1    9.90    1.00
   9   6   1    9.06    0.92
  -9  -6   1   10.39    0.94
  -9   6  -1    8.62    1.04
  -9  -6   1   10.78    1.04
   9   6  -2    0.35    0.49
  -9   6   2   -1.21    0.57
  -9  -6  -2    0.54    0.57
  -9   6   2   -0.63    0.50
  -9   6  -2   -0.03    0.48
  -9  -6   2    0.21    0.56
  -9  -6   2    0.42    0.53
  -9   6  -2   -0.51    0.70
   9   6   2   -0.30    0.39
   9  -6   3   18.46    1.02
  -9  -6  -3   18.36    1.07
   9   6  -3   20.58    1.13
  -9   6  -3   20.25    1.12
  -9   6  -3   18.10    1.12
  -9  -6   3   22.11    1.40
   9   6   3   18.06    1.10
  -9   6  -3   19.48    1.12
   0   7   0    0.71    1.38
   0   7   0    0.10    0.87
   0   7   0   -0.34    1.21
   0  -7   0   -0.27    1.20
   0   7  -1   15.50    2.80
   0   7  -1   14.26    1.46
   0   7   1   12.08    1.28
   0  -7   1   16.30    2.69
   0   7   1   11.95    1.65
   0   7   1   13.77    1.39
   0   7   1   12.48    2.44
   0   7  -1   12.91    2.39
   0   7  -1   12.69    1.28
   0  -7  -1   14.82    2.60
   0   7   1   12.88    1.26
   0   7   2    1.36    1.50
   0   7  -2    5.10    1.87
   0   7  -2    0.46    1.55
   0   7   2    0.05    0.70
   0   7   2    2.25    1.49
   0   7   2   -0.12    0.61
   0   7   2   -0.72    0.78
   0   7  -2    0.62    1.04
   0  -7   2   -0.99    1.15
   0  -7   2    1.38    1.63
   0   7   2    2.00    0.77
   0   7  -2    1.06    0.70
   0   7   2    0.47    0.60
   0   7  -2   -0.33    0.80
   0  -7  -2    0.37    1.42
   0   7  -3    6.57    0.90
   0   7  -3    1.72    1.89
   0   7  -3    4.84    0.94
   0   7   3    5.56    0.76
   0   7   3    6.20    0.91
   0  -7   3    4.74    2.11
   0  -7  -3    2.68    1.83
   0   7   3    4.30    0.86
   0   7   3    4.16    1.72
   0   7  -3    3.37    0.89
   0  -7   3    2.02    1.64
   0   7   3    4.45    0.94
   0   7   4    0.67    1.16
   0   7   4   -1.59    0.78
   0   7   4    0.92    1.91
   0  -7   4   -0.70    0.76
   0   7   4   -0.65    0.83
   0  -7   4   -0.68    1.83
   0   7   4    0.26    0.85
   0   7  -4   -3.76    2.59
   0   7  -4   -0.30    1.14
   0   7   5   31.84    2.17
   0  -7   5   34.56    5.06
   0   7  -5   32.61    2.53
   0   7   5   29.31    2.35
   0   7   5   30.86    2.12
   0  -7   5   31.52    2.16
   0   7   5   32.28    2.14
   0   7   5   36.21    5.21
   0   7  -5   32.75    2.25
   0   7  -5   32.48    6.70
   0  -7   5   32.36    2.31
   0  -7   6   -0.97    0.95
   0   7   6    1.24    0.86
   0   7   6    0.23    0.87
   0  -7  -6   -2.21    3.77
   0   7   6   -2.88    3.08
   0   7   6    0.47    0.96
   0   7  -6    0.13    0.90
   0   7   6   -0.42    0.98
   0  -7   6    0.92    0.83
   0   7  -6    0.58    1.11
   0   7  -6    5.88    5.77
   0  -7   6    5.03    3.73
   0   7   7   -0.47    0.70
   0  -7   7    1.09    0.68
   0  -7   7    0.52    0.62
   0   7  -7    0.61    0.79
   0   7  -7   -0.21    0.62
   0   7   7    0.51    0.76
   0   7   7    1.32    0.80
   0   7   7    0.26    0.90
   0   7   8   -0.22    0.50
   0   7  -8    0.72    0.44
   0   7   8   -0.51    0.47
   0  -7   8    0.40    0.44
   0   7  -8   -0.70    0.54
   1   7   0    0.81    1.34
   1   7   0    1.22    0.66
   1  -7   0   -0.79    1.34
  -1  -7   0    0.33    1.45
   1   7   0    0.41    1.43
  -1   7   0    0.56    0.52
  -1   7   0   -0.53    1.26
  -1   7   0   -0.21    0.59
   1   7   0   -0.75    0.67
   1  -7   1    1.99    1.38
  -1   7   1    2.77    1.38
  -1   7   1    5.13    1.46
   1   7  -1    2.81    0.82
  -1   7   1    3.90    0.88
   1   7  -1    2.15    1.54
   1   7  -1    3.15    1.47
  -1   7   1    2.44    0.66
  -1   7   1    3.00    0.72
  -1   7   1    2.92    0.63
  -1  -7  -1    1.69    1.73
   1   7  -1    2.07    0.75
   1   7   1    2.91    0.74
   1  -7  -1    3.98    1.67
  -1   7  -1    2.44    0.79
  -1   7  -1    1.36    1.50
   1   7   1    1.37    1.29
  -1  -7   1    0.88    1.55
  -1   7  -1    4.23    0.70
   1   7   1    3.08    0.93
  -1   7  -1    1.60    0.69
   1   7   1    2.81    0.75
   1   7   1    1.64    1.56
  -1   7  -1    3.93    0.94
  -1   7   2    5.61    0.85
  -1   7   2    4.97    0.82
   1   7  -2    6.88    1.58
   1   7  -2   10.12    1.98
  -1   7   2    5.97    1.03
   1   7  -2    5.76    0.91
  -1   7   2    7.05    1.64
  -1   7   2    9.08    1.18
  -1  -7  -2    3.61    1.78
  -1   7   2    6.11    0.77
  -1   7   2    5.32    1.75
   1   7  -2    3.78    0.85
   1  -7   2    7.82    1.44
   1   7  -2    5.33    1.60
   1  -7   2    6.50    1.86
   1  -7  -2    4.27    1.59
   1   7   2    7.57    1.16
   1   7   2    5.32    0.85
  -1  -7   2    6.95    1.38
   1   7   2    6.82    1.85
   1   7   2    4.64    1.70
  -1  -7   2    5.26    1.86
  -1   7  -2    4.63    0.98
  -1   7  -2    5.39    1.85
  -1   7  -2    6.13    0.83
  -1   7  -2    8.83    1.49
  -1   7  -2    7.52    1.00
   1   7   2    6.80    1.15
  -1   7   3    1.76    0.88
  -1   7   3    1.98    1.58
   1   7  -3    1.97    0.92
   1  -7   3    4.68    1.86
  -1   7   3    3.03    0.70
  -1   7   3    1.82    0.82
  -1   7   3    2.30    1.62
   1   7  -3   -0.25    2.22
   1   7  -3    1.76    0.88
  -1   7   3    2.24    0.76
  -1   7   3    2.14    0.79
  -1  -7  -3    2.96    2.10
   1  -7   3    3.19    1.63
   1  -7   3    1.41    1.02
   1   7  -3    1.73    2.05
  -1   7  -3    2.75    2.08
   1   7   3    2.59    1.97
   1   7   3    3.36    0.88
   1   7   3    2.53    0.68
   1   7   3    2.10    0.77
  -1   7  -3    1.88    0.87
  -1  -7   3    4.80    1.68
  -1  -7   3    2.39    2.36
   1  -7  -3    0.15    1.61
  -1   7  -3    2.26    0.89
  -1  -7   3    2.29    0.91
  -1   7  -3    2.89    0.82
   1   7   3    1.69    0.75
  -1   7   4    5.19    0.92
   1  -7   4    6.18    2.48
  -1   7   4    3.65    0.83
  -1   7   4    3.83    1.12
   1   7  -4    6.83    1.08
  -1   7   4    5.72    1.05
  -1   7   4    3.65    1.92
   1  -7   4    6.68    1.40
   1   7  -4    2.76    1.26
   1   7  -4    4.90    2.85
  -1  -7   4    4.16    0.94
  -1   7  -4    4.26    1.00
  -1   7  -4    8.64    2.93
  -1  -7   4    2.56    2.05
   1   7   4    5.54    2.03
   1   7   4    4.51    1.04
   1   7   4    3.07    0.87
   1   7   4    4.28    1.06
  -1  -7   4    4.63    1.10
  -1   7  -4    4.02    1.40
   1   7   4    4.19    0.88
   1  -7   5   -1.48    2.52
   1   7  -5    1.02    1.33
   1   7  -5    0.99    0.96
   1  -7   5    1.85    0.85
  -1  -7  -5   -1.99    3.07
  -1   7   5    3.20    2.63
  -1   7   5    1.88    0.83
  -1   7   5   -0.39    0.90
   1   7  -5    4.65    5.14
   1  -7   5    1.23    1.02
  -1   7   5    0.73    0.87
  -1   7   5    0.14    1.07
   1   7   5    6.22    2.22
  -1  -7   5    4.34    2.85
  -1  -7   5    1.70    1.12
   1   7   5    1.43    0.85
  -1   7  -5    0.42    0.95
   1   7   5    1.82    0.88
  -1   7  -5    0.04    1.02
   1   7   5    1.45    0.95
  -1  -7   5    0.75    0.83
   1   7   5    0.30    0.95
  -1   7  -5    2.56    3.45
   1   7   5    3.95    0.97
  -1   7   6    3.73    0.93
  -1   7   6    0.89    1.21
   1   7  -6    3.44    0.95
  -1   7   6    2.36    0.97
  -1   7   6    4.23    1.08
  -1   7   6    5.99    3.41
   1  -7   6    1.59    3.33
   1  -7   6    2.46    0.88
  -1  -7  -6   -2.62    4.28
   1  -7   6    3.91    1.00
   1   7  -6    4.40    1.26
  -1   7  -6    6.76    4.94
   1   7   6    3.97    0.97
  -1   7  -6    2.72    0.91
  -1  -7   6    9.49    4.03
  -1  -7   6    4.90    1.13
   1   7   6    2.36    2.99
  -1   7  -6    2.56    0.97
   1  -7  -6    1.30    3.71
   1   7   6    2.14    0.81
   1   7   6    2.76    0.95
   1   7   6    4.07    0.99
  -1  -7   6    3.34    0.90
  -1  -7  -7    8.50    1.09
   1   7  -7    9.26    1.52
  -1   7   7    7.28    1.03
  -1   7   7    9.11    1.13
  -1   7   7    6.18    0.97
  -1   7   7    8.15    1.01
   1  -7   7    9.35    1.17
   1  -7   7    7.28    1.08
  -1   7  -7    7.77    1.02
   1   7   7    8.15    1.27
   1   7   7    8.52    1.23
  -1  -7   7    7.59    1.19
   1   7   7    8.24    1.12
  -1  -7   7    7.18    1.18
  -1   7  -7    6.32    0.84
   1   7   7    9.81    1.27
   1  -7   8    0.48    0.41
   1   7  -8    0.69    0.66
  -1   7   8    1.08    0.53
  -1   7   8    0.04    0.50
   1   7   8    1.17    0.66
   1   7   8   -0.07    0.54
  -1   7  -8    0.28    0.41
   1   7   8    0.19    0.45
  -1  -7   8    0.35    0.47
  -2   7   0    4.13    0.75
  -2  -7   0    1.22    1.83
  -2   7   0    2.92    0.94
   2   7   0    2.50    0.69
  -2   7   0    1.66    1.61
   2   7   0    1.34    0.76
  -2   7   0    2.23    0.80
   2   7   0    2.07    1.63
  -2   7   0    3.03    0.63
  -2   7   0    1.90    0.96
  -2   7   1   21.08    1.80
  -2   7   1   25.67    1.66
   2   7  -1   23.15    1.85
  -2   7   1   24.47    1.51
  -2   7   1   25.19    3.01
   2   7  -1   22.59    1.93
  -2   7   1   28.26    2.60
   2  -7   1   26.79    2.80
  -2   7   1   24.84    1.62
   2   7  -1   21.67    2.95
  -2  -7  -1   24.81    3.55
  -2   7  -1   23.80    1.55
  -2   7  -1   25.58    1.73
  -2   7  -1   27.09    2.10
  -2  -7   1   25.69    3.63
   2   7   1   27.46    3.14
  -2   7  -1   23.45    1.79
  -2  -7   1   24.31    1.91
   2   7   1   23.14    1.68
   2   7   1   29.25    3.16
   2   7   1   24.01    1.73
  -2   7  -1   23.19    1.82
   2   7   1   25.73    1.90
  -2   7  -1   25.30    3.08
  -2   7   2   12.39    1.08
   2   7  -2   17.16    3.49
  -2   7   2   12.56    1.29
   2  -7   2   18.57    2.92
  -2   7   2   11.15    2.08
   2   7  -2   11.95    2.93
  -2   7   2   12.60    1.32
  -2  -7  -2   11.90    2.47
  -2   7   2   13.17    1.49
  -2   7   2   14.00    1.77
   2   7  -2   13.04    1.40
  -2  -7   2   13.81    1.51
   2   7   2   13.27    1.34
  -2   7  -2   13.68    1.56
  -2   7  -2   12.07    1.47
  -2   7  -2   13.25    1.26
  -2   7  -2   10.38    1.75
   2   7   2   11.29    2.04
   2  -7  -2   12.09    2.20
  -2   7  -2   10.88    1.38
  -2  -7   2   12.43    2.56
  -2   7  -2   11.06    2.28
   2   7   2   10.80    1.34
   2   7   2   15.00    1.39
   2   7   2   15.74    1.49
  -2  -7   2   14.43    2.79
   2  -7   3   -0.46    1.83
   2  -7   3   -2.38    1.85
   2  -7   3   -1.38    0.90
   2   7  -3    1.13    0.90
  -2   7   3    1.83    1.74
  -2   7   3    0.46    0.62
  -2   7   3    0.37    0.81
   2   7  -3    1.96    2.37
  -2   7   3   -0.87    0.93
  -2   7   3   -0.44    1.78
  -2   7   3    0.66    0.75
  -2   7   3    0.44    0.73
  -2   7  -3   -0.36    1.00
  -2   7  -3    1.19    0.93
   2   7   3    0.13    0.81
  -2  -7   3    0.02    0.85
  -2   7  -3    0.16    0.77
   2   7   3   -0.29    1.63
  -2  -7   3    3.93    3.28
   2   7   3   -0.77    0.76
   2   7   3   -0.41    0.66
   2  -7  -3    0.08    1.75
   2   7   3    1.25    0.89
  -2   7  -3   -0.81    0.78
  -2  -7   3    0.24    1.81
  -2   7  -3    1.67    2.14
  -2  -7  -4    2.19    3.32
   2   7  -4   -0.32    1.21
   2  -7   4    3.52    2.48
  -2   7   4   -0.66    0.73
  -2   7   4   -0.51    0.84
  -2  -7  -4    2.52    2.95
  -2   7   4    0.00    0.96
  -2   7   4    1.60    2.15
   2  -7   4   -0.20    0.84
  -2   7   4   -0.57    0.78
   2   7  -4    2.44    3.12
  -2   7  -4   -1.17    0.94
   2   7   4   -0.67    1.98
   2   7   4   -0.58    0.72
  -2  -7   4   -2.08    2.34
   2   7   4    0.57    0.87
   2   7   4    1.01    0.98
  -2  -7   4    1.21    0.98
   2   7   4    0.67    0.85
  -2  -7   4    0.78    0.83
  -2   7  -4    1.56    0.97
  -2   7  -4   -0.11    1.86
  -2   7  -4    2.31    3.17
  -2   7   5    0.90    0.82
   2  -7   5    2.41    0.94
  -2   7   5    1.41    0.84
  -2   7   5    0.68    0.97
   2   7  -5    1.94    1.38
  -2  -7  -5    0.95    3.36
  -2   7   5    0.62    3.13
   2  -7   5    6.33    3.36
  -2   7   5    1.50    0.92
   2   7   5    1.94    0.88
  -2   7  -5    1.54    3.68
  -2  -7   5    2.38    0.84
   2   7   5    0.75    2.43
   2   7   5    1.89    0.85
   2   7   5    1.00    0.98
  -2  -7   5    3.73    3.35
  -2  -7   5    0.93    1.10
   2   7   5    3.26    0.99
  -2   7  -5    1.80    0.96
  -2   7  -5    3.46    1.04
   2  -7   6    1.78    0.93
   2  -7   6    0.17    0.71
  -2   7   6    0.54    0.97
  -2   7   6    1.94    0.91
  -2   7   6   -0.03    0.76
   2   7  -6    0.73    1.20
   2   7   6    1.08    0.85
  -2   7  -6   -0.07    0.91
  -2  -7   6    0.01    0.86
  -2   7  -6    1.98    0.87
   2   7   6    0.98    0.82
   2   7   6   -0.52    0.79
  -2  -7   6    0.43    0.97
  -2  -7  -7    1.19    0.72
   2   7  -7    1.33    0.92
  -2   7   7    0.51    0.74
  -2   7   7    0.06    0.72
  -2   7   7    0.09    0.57
  -2  -7   7    0.43    0.67
  -2  -7   7    1.38    0.65
   2   7   7    2.76    0.70
   2   7   7    1.43    0.62
  -2   7  -7    0.42    0.62
   2   7   7    1.59    0.69
   2   7  -8    0.94    0.69
   2  -7   8    1.24    0.40
  -2   7   8    0.07    0.59
   2   7   8    0.34    0.39
   2   7   8    1.62    0.64
  -2   7  -8    0.47    0.38
  -2  -7   8    1.06    0.40
  -3   7   0   -1.24    1.54
   3   7   0   -0.21    1.56
   3   7   0    0.15    0.74
  -3   7   0    0.30    0.60
  -3   7   0    0.76    0.90
  -3  -7   0    2.25    1.95
  -3  -7   0    0.49    0.99
  -3   7   0   -0.48    0.76
  -3   7   0   -0.19    0.72
  -3   7   0   -0.70    1.12
   3   7   0    1.31    0.73
   3   7  -1   13.18    2.25
  -3   7   1   18.02    1.71
  -3   7   1   15.00    1.19
   3  -7   1   16.97    2.55
  -3   7   1   15.64    1.34
   3   7  -1   15.22    1.44
  -3  -7  -1   12.35    3.01
  -3   7   1   15.51    1.47
  -3   7   1   15.51    3.07
   3   7   1   16.34    1.34
  -3  -7   1   11.76    2.60
  -3   7  -1   15.61    1.52
  -3   7  -1   16.85    1.51
  -3  -7   1   12.81    1.59
   3   7   1   14.95    1.54
  -3   7  -1   10.01    1.61
  -3   7  -1   16.52    3.17
  -3   7  -1   15.70    1.28
   3   7   1   11.66    2.15
   3   7   1   11.82    1.34
  -3   7   2    1.98    1.81
   3   7  -2    0.43    0.78
   3   7  -2   -4.45    2.25
  -3  -7  -2    1.51    1.12
  -3   7   2    2.36    1.01
  -3   7   2    1.21    0.60
  -3   7   2    2.13    0.78
  -3  -7  -2   -0.60    2.14
  -3   7   2    1.39    0.78
   3  -7   2    2.23    2.11
  -3   7  -2   -0.33    0.67
   3   7   2    0.99    0.69
  -3   7  -2    1.14    0.96
  -3  -7   2    1.86    0.89
  -3  -7   2    1.82    2.39
   3   7   2    4.17    1.80
   3   7   2   -0.49    0.77
  -3   7  -2    2.69    0.91
   3   7   2    0.78    0.85
  -3   7  -2    2.46    0.95
  -3   7  -2    0.52    1.93
  -3  -7  -3    3.66    2.50
  -3   7   3    2.60    2.27
   3  -7   3    3.51    2.24
   3  -7   3    2.33    0.89
  -3   7   3    2.55    0.67
  -3   7   3    0.13    2.04
   3   7  -3    2.16    2.55
  -3   7   3    1.29    1.07
   3   7  -3    1.94    0.93
  -3   7   3    1.08    0.78
  -3  -7  -3    3.85    3.01
  -3   7  -3    0.58    1.08
  -3  -7   3    2.31    1.07
  -3   7  -3   -0.26    2.92
   3   7   3    1.42    1.87
   3   7   3    1.45    0.89
  -3  -7   3    3.46    2.31
   3  -7  -3    3.51    2.22
  -3  -7   3    4.05    1.32
  -3   7  -3    2.17    0.82
  -3  -7   3    0.24    3.02
   3   7   3    2.92    0.90
   3   7   3    2.64    0.84
  -3   7   4    0.45    0.77
  -3   7   4    1.89    0.80
   3   7  -4    0.47    1.13
   3  -7   4   -0.80    0.82
  -3  -7  -4   -3.51    4.16
   3   7  -4   -0.57    4.55
   3  -7   4    5.34    3.32
  -3  -7  -4   -0.14    1.12
  -3   7   4    1.00    0.89
  -3   7   4   -0.12    0.98
  -3   7  -4   -1.30    1.00
  -3  -7   4    0.31    1.08
  -3  -7   4    1.01    0.81
   3   7   4    1.72    0.86
  -3   7  -4    1.51    3.03
   3   7   4    0.32    0.82
  -3   7  -4    0.13    0.89
   3   7   4    0.27    2.10
   3   7   4   -0.46    0.91
  -3   7  -4   -0.01    1.01
   3   7   4   -0.44    0.81
  -3   7   5    3.03    0.99
  -3  -7  -5   -6.31    4.41
   3   7  -5    2.49    1.31
  -3   7   5    3.32    0.84
  -3   7   5    2.51    0.93
   3  -7   5    6.33    3.35
  -3   7   5   -6.81    3.55
  -3   7   5    2.14    0.80
   3  -7   5    3.31    0.88
  -3   7  -5    1.47    1.05
   3   7   5    2.59    0.86
   3   7   5    0.89    2.70
   3   7   5    2.65    0.94
  -3   7  -5    1.47    0.98
  -3  -7   5    2.37    1.15
  -3   7  -5    4.36    3.72
  -3  -7   5    2.84    3.50
   3  -7  -5    4.78    4.78
   3   7   5    3.89    1.07
   3   7   5    2.09    0.80
  -3  -7   5    2.93    0.87
  -3   7   6    6.75    1.09
   3   7  -6    8.93    1.79
  -3  -7  -6    4.72    0.88
   3  -7   6    4.54    0.77
   3  -7   6    7.84    0.93
  -3   7   6    5.97    0.99
  -3   7   6    6.22    0.82
   3   7   6    4.78    0.84
  -3  -7   6    5.16    1.02
  -3   7  -6    5.46    1.21
   3   7   6    4.96    0.80
  -3  -7   6    7.13    1.13
   3   7   6    5.01    1.06
  -3  -7  -7    0.24    0.49
   3  -7   7    0.33    0.48
  -3   7   7   -0.33    0.43
  -3   7   7   -0.03    0.69
  -3   7   7    0.62    0.69
   3   7  -7    0.53    0.84
   3   7   7    0.02    0.56
  -3   7  -7    0.48    0.63
   3   7   7    1.36    0.53
  -3  -7   7    1.31    0.61
  -3  -7   7    0.24    0.59
  -3  -7  -8    0.41    0.39
  -3   7   8    1.25    0.45
   3  -7   8    0.60    0.32
  -3   7   8    0.90    0.43
   3   7  -8    0.65    0.41
  -3   7  -8    0.71    0.33
  -3  -7   8    0.29    0.38
   3   7   8    0.01    0.40
  -4   7   0    0.80    0.99
  -4  -7   0    0.65    1.05
  -4   7   0   -1.06    0.82
  -4   7   0    0.44    0.60
  -4  -7   0    2.01    2.37
   4   7   0   -3.32    1.79
   4  -7   0   -4.92    3.42
  -4   7   0    0.45    0.87
   4   7   0   -0.54    0.75
  -4   7   0    3.10    2.14
  -4  -7   0   -0.56    0.89
   4   7   0    1.21    0.70
  -4   7   1    2.07    0.96
  -4   7   1    0.59    0.63
  -4  -7  -1    0.06    2.46
  -4   7   1    1.55    1.06
   4   7  -1    1.27    0.73
  -4   7   1   -0.93    1.97
   4  -7   1   -4.39    2.67
  -4   7   1    2.36    1.36
   4   7  -1    2.36    2.21
  -4  -7   1    1.59    2.58
   4   7   1    1.35    0.92
  -4   7  -1    0.43    2.42
  -4  -7   1   -0.72    1.07
  -4   7  -1    1.72    0.72
  -4   7  -1    1.72    1.41
   4   7   1    2.76    1.92
  -4  -7   1    1.35    0.84
  -4   7   2    0.86    1.15
  -4   7   2   -0.88    2.18
   4   7  -2    0.72    0.84
  -4   7   2   -0.25    0.81
  -4  -7  -2   -1.65    1.03
  -4   7   2    1.47    1.10
   4   7  -2   -3.41    2.20
  -4  -7  -2    3.04    2.63
  -4   7   2   -0.34    0.67
   4  -7   2   -1.24    2.33
  -4   7   2   -0.43    0.77
  -4  -7   2    0.57    0.99
  -4   7  -2   -0.26    0.75
  -4   7  -2   -1.11    0.98
   4   7   2   -0.25    1.00
   4   7   2   -0.31    0.91
  -4   7  -2   -1.90    2.64
   4   7   2   -0.10    0.73
  -4   7  -2   -1.37    0.85
  -4  -7   2   -0.14    0.86
  -4  -7   2    3.97    2.98
  -4   7  -2   -0.03    0.95
   4   7   2    2.95    1.92
   4   7  -3   -0.65    0.91
  -4   7   3   -0.90    0.77
  -4   7   3   -0.95    0.95
  -4   7   3    1.23    0.74
   4  -7   3   -0.21    2.78
  -4   7   3   -0.32    1.02
   4   7  -3    4.24    3.89
  -4  -7  -3   -0.96    0.99
   4  -7  -3   -3.73    2.75
  -4  -7   3   -2.34    3.73
  -4  -7   3    1.54    1.18
  -4   7  -3    0.24    0.89
  -4   7  -3    0.43    1.13
   4   7   3    0.19    0.88
  -4   7  -3   -0.33    0.76
   4   7   3   -0.09    0.79
   4   7   3    1.99    2.80
  -4   7  -3    0.27    0.95
  -4  -7   3   -0.24    0.86
  -4   7   4    5.31    0.89
   4   7  -4    7.82    3.67
   4   7  -4    6.81    1.32
  -4  -7  -4    4.09    1.11
   4  -7   4    0.44    4.83
  -4   7   4    6.03    1.00
  -4   7   4    6.09    1.21
   4  -7   4    6.96    1.00
  -4   7   4    6.12    0.96
   4   7   4    7.48    1.26
  -4   7  -4    7.77    4.07
  -4  -7   4    5.74    1.20
  -4   7  -4    4.81    1.20
   4   7   4    7.85    1.02
  -4  -7   4    5.62    5.28
  -4   7  -4    6.26    0.96
  -4   7  -4    6.82    1.16
  -4   7  -4    5.19    1.07
  -4  -7   4    5.97    0.93
   4   7   4    4.98    2.75
   4   7  -5    5.45    1.20
   4  -7   5    4.47    0.80
  -4   7   5    5.90    0.90
  -4   7   5    7.06    1.06
  -4   7   5    5.73    1.11
  -4  -7   5    5.29    1.12
   4   7   5    4.91    0.88
  -4   7  -5    3.84    0.97
  -4  -7   5    5.12    0.90
   4   7   5    6.56    0.96
  -4   7  -5    3.83    0.89
  -4  -7  -6   -0.14    0.73
   4  -7   6    0.25    0.58
  -4   7   6   -0.22    0.74
   4   7  -6    0.94    0.97
  -4   7   6    1.08    0.78
   4  -7   6    1.32    0.89
  -4   7   6    0.77    0.64
  -4  -7   6    1.49    0.83
  -4  -7   6   -0.25    0.65
   4   7   6    1.55    0.62
   4   7   6    0.18    0.59
  -4   7  -6    0.88    0.64
   4   7  -7    0.17    0.67
   4  -7   7    0.18    0.42
  -4  -7  -7    0.48    0.45
  -4   7   7    1.01    0.61
  -4  -7   7   -0.85    0.55
  -4  -7   7    0.34    0.56
   4   7   7   -0.27    0.64
   4   7   7   -0.85    0.64
  -4   7  -7    0.73    0.46
  -5  -7   0   -1.07    0.83
  -5   7   0    0.04    2.55
  -5   7   0   -0.28    1.04
  -5  -7   0   -2.42    2.99
  -5   7   0   -0.17    0.95
  -5  -7   0   -0.73    0.98
  -5   7   0   -0.28    1.00
  -5   7   0   -1.60    0.78
   5   7   0   -0.45    2.16
   5   7   0   -0.84    0.88
  -5   7   1    0.51    1.03
  -5   7   1    0.69    0.96
  -5  -7  -1    0.54    1.07
  -5   7   1   -0.04    0.81
   5   7  -1   -0.63    0.88
  -5   7   1    2.66    2.65
   5   7  -1    1.45    0.95
   5  -7   1    0.80    3.58
  -5   7   1    1.19    0.76
  -5   7  -1    0.44    1.11
  -5  -7   1   -0.62    0.80
  -5   7  -1    0.71    0.99
  -5  -7   1    0.08    0.97
   5   7   1    0.90    2.71
   5   7   1    0.77    0.82
  -5   7  -1   -0.71    3.16
  -5   7  -1   -0.40    1.00
  -5   7  -1   -0.16    0.72
  -5  -7  -2    0.37    3.32
  -5   7   2    0.16    0.83
  -5  -7  -2    0.32    0.94
  -5   7   2    0.76    0.88
   5   7  -2   -1.03    2.38
  -5   7   2    3.83    2.95
   5  -7   2   -0.02    3.13
  -5   7   2   -0.02    1.01
   5   7  -2   -0.59    0.85
  -5   7   2   -0.56    0.76
   5   7   2   -0.12    0.79
   5   7   2   -0.40    2.11
  -5   7  -2    0.00    0.93
  -5  -7   2    1.08    0.98
  -5   7  -2    6.83    3.37
   5   7   2    0.56    0.77
  -5   7  -2    0.81    0.87
  -5   7  -2   -0.58    1.23
  -5   7  -2    0.38    1.17
  -5  -7   2    0.07    0.94
  -5  -7   2    1.70    3.60
  -5   7   3   -0.04    0.70
  -5  -7  -3   -6.08    3.55
  -5   7   3    0.40    0.78
  -5  -7  -3    0.49    0.94
  -5   7   3   -0.23    0.78
   5   7  -3    0.78    0.88
   5  -7   3   -0.64    3.29
  -5   7  -3   -0.83    1.15
  -5  -7   3    1.88    1.05
  -5   7  -3   -0.59    0.77
   5   7   3   -2.41    2.92
   5   7   3   -0.63    0.76
  -5  -7   3    0.57    0.95
  -5   7  -3    0.66    1.00
   5   7   3    0.49    0.78
  -5   7  -3    0.32    0.96
   5  -7   4    7.56    4.58
  -5   7   4    7.88    1.02
   5  -7   4   10.16    1.20
   5   7  -4    6.68    3.84
   5   7  -4    9.45    1.15
  -5  -7  -4    7.78    1.31
  -5  -7  -4    7.99    1.06
   5   7   4    7.56    1.28
  -5  -7   4    9.87    1.66
  -5   7  -4    8.80    1.32
  -5  -7   4    9.55    1.30
   5   7   4    8.57    3.59
   5   7   4    9.06    1.29
  -5   7  -4    6.33    1.03
  -5   7  -4    6.46    0.97
  -5   7  -4   15.77    5.18
  -5   7  -4    7.67    1.30
   5  -7   5   -0.30    0.64
  -5  -7  -5    0.26    0.78
  -5   7   5    0.98    0.83
   5   7  -5   -0.30    0.87
   5   7   5   -1.07    0.54
   5   7   5    0.89    0.65
  -5   7  -5   -0.49    0.67
  -5  -7   5   -0.36    1.00
  -5  -7   5    0.39    0.91
  -5   7  -5    0.45    0.83
   5  -7   6   -0.23    0.77
  -5   7   6   -0.02    0.78
   5  -7   6   -0.60    0.45
  -5  -7  -6   -0.09    0.52
  -5   7   6    1.49    0.90
   5   7  -6    0.24    0.67
  -5   7  -6    0.96    0.53
  -5  -7   6    0.61    0.56
   5   7   6    0.28    0.48
  -5   7  -6    1.29    0.98
  -5  -7   6    0.10    0.71
   5   7   6    0.38    0.48
  -5  -7  -7    4.64    0.60
   5   7  -7    5.16    0.82
   5  -7   7    4.61    0.58
  -5   7  -7    5.29    0.57
  -5  -7   7    5.12    0.73
   5   7   7    6.54    0.96
  -6   7   0    0.52    1.06
  -6  -7   0    2.66    1.05
   6   7   0    1.11    0.94
  -6   7   0    0.98    0.87
  -6   7   0    3.88    1.19
  -6  -7   0    1.80    3.24
  -6  -7   0    1.08    0.94
   6   7   0    0.64    2.44
  -6   7   0    0.64    1.04
  -6   7   1    3.02    1.11
  -6   7   1    3.06    1.06
  -6  -7  -1    3.54    3.44
  -6  -7  -1    2.10    1.12
   6  -7   1   13.24    4.48
  -6   7   1    2.77    0.96
   6   7  -1    1.12    2.53
   6   7  -1    3.91    0.95
  -6  -7   1    4.77    3.68
  -6   7  -1    3.79    1.26
   6   7   1   -0.03    2.52
  -6   7  -1    3.11    1.14
  -6  -7   1    3.60    0.99
  -6   7  -1    3.90    1.15
   6   7   1    3.93    0.93
  -6   7  -1    3.67    0.81
  -6  -7   1    1.70    0.99
  -6  -7  -2    7.03    1.14
  -6   7   2    6.17    1.06
  -6  -7  -2    8.30    0.95
  -6  -7  -2    8.28    3.98
  -6   7   2    5.91    1.22
  -6   7   2    8.87    1.40
   6  -7   2    6.54    4.75
   6   7  -2    0.63    2.82
  -6  -7   2   -2.48    4.51
   6   7   2    4.50    0.86
  -6  -7   2    6.54    1.10
  -6   7  -2    8.91    1.30
  -6   7  -2    7.51    1.42
  -6   7  -2    7.51    0.98
   6   7   2   11.74    3.05
   6   7   2    8.95    1.08
  -6  -7   2    5.51    1.06
  -6   7  -2    6.59    1.12
  -6  -7   2    6.44    1.67
  -6   7   3    3.13    1.01
  -6  -7  -3    1.56    0.88
  -6  -7  -3    0.04    0.75
  -6   7   3    1.13    0.97
  -6   7  -3    1.63    0.92
  -6   7  -3    1.32    1.14
   6   7   3    0.64    0.82
   6   7   3    1.03    0.73
  -6  -7   3   -0.47    0.95
  -6   7  -3    1.59    0.82
  -6  -7   3   -0.66    1.15
  -6   7  -3    1.58    0.98
  -6  -7   3   -2.32    1.69
  -6  -7  -4   -0.58    0.63
   6  -7   4    0.12    0.57
  -6  -7  -4   -0.03    0.64
   6   7  -4    0.73    0.91
  -6  -7   4    0.49    0.98
  -6  -7   4    0.36    0.95
  -6   7  -4    2.08    0.94
   6   7   4    0.77    0.58
  -6   7  -4    0.49    0.71
  -6   7  -4   -0.31    0.78
   6   7   4   -0.43    0.66
  -6   7  -4    1.74    0.63
   6  -7   5    0.78    0.53
  -6  -7  -5    0.26    0.57
   6   7  -5   -0.44    1.16
  -6   7  -5    0.39    0.66
  -6  -7   5    0.48    0.81
   6   7   5    0.82    0.64
  -6   7  -5   -0.47    0.51
  -6  -7   5    1.14    0.66
   6   7   5    0.38    0.49
   6   7  -6    0.69    0.49
   6  -7   6    0.22    0.37
  -6  -7  -6   -0.39    0.44
  -6   7  -6    1.37    0.52
  -6  -7   6   -0.62    0.55
  -6  -7   6   -0.21    0.59
   6   7   6    0.40    0.37
  -6   7  -6    0.89    0.37
  -7  -7   0   -0.88    0.85
  -7   7   0    0.31    1.04
  -7   7   0    0.92    1.00
   7   7   0   -0.27    0.83
  -7  -7   0   -0.83    0.89
  -7   7   1   -0.42    1.46
  -7   7   1   -0.02    1.11
  -7  -7  -1    0.88    1.24
  -7   7   1   -0.36    0.80
  -7   7   1    0.99    0.94
   7   7   1    0.03    0.89
  -7  -7   1    0.34    0.91
  -7   7  -1   -1.25    1.66
  -7   7  -1   -0.04    1.12
  -7  -7   1    1.99    1.40
  -7   7   2    1.40    0.79
  -7   7   2   -0.65    0.85
   7   7  -2   -0.40    0.82
  -7  -7  -2    0.29    0.78
  -7   7  -2    1.91    1.09
  -7  -7   2    0.40    0.85
  -7  -7   2   -0.93    0.72
   7   7   2    0.89    0.71
  -7   7  -2   -1.08    0.79
   7   7   2   -0.09    0.60
  -7   7  -2    0.51    0.94
  -7  -7  -3    2.48    0.65
   7   7  -3    0.66    0.77
  -7   7   3    1.05    0.97
  -7  -7  -3   -0.42    0.62
  -7  -7   3    1.03    0.91
  -7   7  -3    0.95    0.74
   7   7   3    1.22    0.63
  -7   7  -3   -0.32    0.89
  -7   7  -3   -0.13    0.72
   7   7   3    0.52    0.61
   7   7  -4    0.64    0.65
  -7  -7  -4    0.62    0.52
   7  -7   4    0.22    0.46
  -7  -7  -4   -0.76    0.51
  -7   7  -4    0.60    0.58
  -7   7  -4    0.03    0.70
   7   7   4    0.41    0.50
   7   7   4   -0.39    0.48
  -7  -7   4    0.83    0.72
  -7  -7  -5    0.38    0.38
   7  -7   5    0.46    0.32
   7   7  -5   -0.67    0.76
  -7  -7   5   -0.45    0.59
  -7   7  -5    0.46    0.52
   8   7   0    0.59    0.57
  -8   7   0    0.24    0.72
   8   7   0   -0.13    0.60
  -8   7   0    0.35    0.72
  -8  -7   0    1.05    0.67
  -8  -7  -1    0.34    0.60
  -8   7   1    0.67    0.75
   8   7  -1   -0.85    0.65
  -8   7   1   -0.78    0.75
  -8   7   1    1.03    0.81
  -8   7  -1   -0.12    0.76
   8   7   1    0.32    0.56
  -8  -7   1    0.56    0.64
   8   7   1   -0.17    0.59
  -8   7  -1   -0.02    0.69
  -8   7  -1    1.04    0.82
  -8   7   2    3.42    0.74
   8   7  -2    1.94    0.64
  -8   7   2    1.84    0.71
  -8  -7  -2    1.08    0.59
   8   7   2    3.01    0.59
  -8  -7   2    2.15    0.70
  -8  -7   2    1.92    0.65
  -8   7  -2    1.49    0.65
  -8   7  -2    1.62    0.71
  -8   7  -2    1.91    0.71
   8   7   2    1.89    0.56
   8   7  -3    0.55    0.57
  -8  -7  -3    0.20    0.44
   8  -7   3    1.38    0.52
  -8   7  -3    0.73    0.52
  -8  -7   3    0.26    0.58
  -8   7  -3    0.49    0.56
  -8   7  -3    0.45    0.59
   8   7   3    0.10    0.54
   8   7   3    0.95    0.42
   8   7  -4    2.35    0.48
  -8  -7   4    2.70    0.58
  -8   7  -4    2.07    0.45
   9   7   0    0.09    0.44
  -9  -7   0   -0.11    0.40
  -9   7   0    0.01    0.42
   9   7  -1   -0.13    0.52
  -9   7   1    0.30    0.47
  -9  -7  -1    0.41    0.43
  -9   7   1   -0.21    0.46
  -9   7  -1   -0.29    0.43
  -9   7  -1    0.22    0.46
  -9  -7   1    0.69    0.41
  -9   7  -1    0.82    0.47
   0   8   0   50.28    2.66
   0   8   0   46.00    2.53
   0   8   0   46.66    2.43
   0  -8   0   51.76    4.31
   0   8   0   46.91    2.60
   0   8   0   42.61    3.77
   0   8   0   42.85    3.93
   0   8  -1    0.86    0.65
   0  -8  -1   -2.06    1.69
   0   8  -1    0.76    0.82
   0   8  -1    1.66    1.76
   0   8   1    1.11    1.51
   0   8  -1    1.11    0.66
   0  -8   1    1.12    1.94
   0   8   1    0.14    0.69
   0   8   1   -2.12    1.66
   0   8  -1    0.56    0.79
   0   8   1    0.54    0.65
   0   8   1    0.11    0.81
   0   8  -1    2.27    1.98
   0   8   1    0.67    1.07
   0   8   1   -0.08    0.75
   0   8  -2  286.35   13.47
   0   8   2  313.36   13.55
   0   8  -2  298.08   13.62
   0   8   2  303.93   13.56
   0   8  -2  301.74   13.58
   0  -8  -2  290.52   15.64
   0  -8   2  313.36   15.32
   0   8   2  287.68   13.57
   0   8   2  289.91   13.53
   0   8   2  309.36   14.65
   0   8  -2  292.76   14.86
   0   8   2  306.12   13.46
   0   8   3    0.17    0.74
   0   8  -3   -0.23    0.72
   0   8  -3   -0.70    0.94
   0   8   3    1.33    2.05
   0   8  -3    0.89    0.96
   0   8  -3   -0.74    2.43
   0   8   3   -0.17    0.81
   0  -8   3   -2.45    2.29
   0  -8  -3   -0.79    2.17
   0   8   3    0.20    0.91
   0  -8   4   86.95    4.35
   0   8   4   87.05    4.29
   0   8  -4   86.90    4.31
   0   8  -4   83.82    4.51
   0   8   4   80.26    4.43
   0   8   4   88.14    4.35
   0   8   4   88.25    4.34
   0   8   4   81.71    7.62
   0  -8   4   89.29    4.55
   0  -8   4   94.79    6.84
   0   8   5   -0.14    1.07
   0   8   5   -0.25    0.87
   0  -8   5    0.77    1.04
   0   8   5   -0.54    0.79
   0   8   5    2.22    3.10
   0  -8   5    3.54    4.67
   0  -8  -5   -1.85    3.59
   0  -8   5    0.18    0.79
   0   8   5   -1.07    0.85
   0   8  -5   -0.19    1.02
   0   8  -5   -0.77    0.89
   0   8  -5   -2.30    4.61
   0   8  -6  116.23    5.56
   0  -8   6  114.80    5.57
   0  -8   6  125.35    5.73
   0   8  -6  116.43    5.72
   0   8   7   -0.05    0.63
   0   8  -7   -0.65    0.59
   0   8   7    0.74    0.64
   0   8  -7   -0.75    0.53
   0  -8   7   -0.94    0.59
   0  -8   7    0.22    0.59
   0   8   8   17.78    1.10
   0   8   8   18.83    1.07
   0  -8   8   18.71    1.06
   1   8   0    1.05    0.94
   1   8   0    0.89    0.68
  -1   8   0    0.59    0.61
   1  -8   0    0.51    1.57
   1   8   0    0.44    0.68
   1   8   0   -0.69    1.72
   1   8   0   -0.50    0.78
   1   8   0    0.24    0.76
  -1   8   0   -0.33    1.55
  -1  -8   0   -0.69    1.71
  -1   8   0   -0.14    0.76
  -1  -8   0    2.56    1.10
  -1   8   0   -0.10    0.58
  -1   8   0    1.03    0.84
   1   8   0    2.57    1.90
  -1   8   1  141.05    7.18
   1   8  -1  121.73    6.43
  -1   8   1  136.67    6.25
  -1  -8  -1  138.23    8.27
   1   8  -1  130.70    7.53
   1   8  -1  134.29    6.40
  -1   8   1  140.04    6.37
   1  -8   1  142.34    7.95
   1   8  -1  132.98    6.25
   1   8  -1  133.59    6.37
  -1   8   1  130.82    7.61
  -1   8   1  138.99    6.34
   1   8  -1  127.85    7.61
   1   8  -1  128.38    6.34
  -1   8   1  131.33    6.35
   1   8   1  139.60    6.36
  -1   8  -1  133.94    6.42
   1   8   1  129.03    6.39
  -1  -8   1  125.21    6.40
  -1   8  -1  139.43    6.37
  -1  -8   1  141.48    8.26
  -1   8  -1  135.61    6.26
   1   8   1  135.88    7.63
  -1   8  -1  134.75    7.78
   1   8   1  131.86    6.32
  -1   8  -1  132.31    6.37
   1   8   1  141.23    6.36
   1   8   1  147.24    7.62
   1  -8  -1  144.26    7.94
   1   8   1  136.97    6.26
  -1   8   2   10.76    1.20
   1  -8   2    9.05    2.24
   1   8  -2    8.81    1.01
   1   8  -2    5.66    2.41
  -1  -8  -2    5.80    2.38
  -1   8   2    9.57    1.36
  -1   8   2   10.68    2.33
  -1   8   2    9.17    1.51
   1   8  -2    8.66    2.40
  -1   8   2    9.32    1.34
   1   8  -2   10.99    1.49
  -1   8   2    9.27    1.23
  -1   8   2   11.04    2.05
   1   8   2    7.84    2.14
  -1   8  -2    8.00    1.15
  -1   8  -2    6.43    1.04
  -1   8  -2    8.61    2.22
   1  -8  -2    6.72    1.94
  -1  -8   2    9.26    1.49
   1   8   2    7.17    2.52
   1   8   2   11.30    1.45
   1   8   2    9.81    1.31
  -1  -8   2    8.05    2.26
   1   8   2    9.90    1.32
  -1   8  -2   10.76    1.27
   1   8   2   11.58    1.15
  -1   8  -2    7.90    1.04
  -1   8   3  135.65    6.72
  -1   8   3  141.12    6.64
   1   8  -3  144.82    6.81
   1  -8   3  130.38    8.27
  -1   8   3  133.50    7.91
  -1   8   3  148.07    6.66
   1  -8   3  145.90    8.70
  -1  -8  -3  134.25    8.67
   1   8  -3  127.94    8.60
  -1   8   3  132.72    8.24
   1   8  -3  139.63    6.60
  -1   8   3  141.16    6.58
  -1  -8   3  146.95    6.83
  -1   8  -3  143.31    6.64
  -1  -8   3  135.37    8.94
  -1   8  -3  143.00    8.94
   1   8   3  147.01    8.15
  -1   8  -3  147.85    6.74
   1   8   3  143.20    6.60
  -1   8  -3  145.10    6.94
   1  -8  -3  140.01    8.39
   1   8   3  150.87    6.71
   1   8   3  143.84    6.68
   1   8   3  144.93    6.68
   1   8  -4   18.51    1.68
   1  -8   4   22.58    1.88
  -1   8   4   26.98    4.35
   1   8  -4   19.72    2.20
  -1   8   4   19.42    1.98
  -1   8   4   19.07    1.71
  -1   8   4   19.89    1.80
  -1   8   4   20.51    1.74
   1   8   4   19.90    1.94
   1   8   4   18.41    1.93
  -1  -8   4   21.45    1.84
   1   8   4   19.36    1.79
   1   8   4   18.98    1.66
  -1  -8   4   22.69    2.10
  -1   8  -4   21.95    1.81
  -1   8  -4   21.90    2.04
  -1   8   5   38.99    2.47
   1   8  -5   39.40    2.28
   1  -8   5   31.18    5.00
   1  -8   5   39.80    2.54
   1  -8   5   33.23    2.31
  -1   8   5   37.63    2.35
  -1   8   5   37.21    2.37
   1   8  -5   37.11    2.86
  -1   8   5   36.55    2.53
  -1   8   5   31.41    5.63
   1   8   5   37.56    2.31
   1   8   5   32.60    5.04
   1   8   5   40.17    2.36
   1   8   5   38.89    2.51
  -1  -8   5   37.95    2.67
  -1   8  -5   40.01    2.44
  -1   8  -5   37.93    2.47
  -1  -8   5   38.59    2.30
  -1   8   6    0.65    0.72
  -1   8   6    0.95    0.87
   1  -8   6    1.38    0.75
  -1   8   6   -0.62    0.93
   1   8  -6   -0.78    1.36
   1  -8   6    0.40    0.84
   1   8  -6    0.22    0.78
  -1  -8   6    1.89    0.97
   1   8   6    0.41    1.01
  -1  -8   6    1.50    0.77
  -1   8  -6   -0.47    0.77
   1   8   6    1.37    0.81
   1   8   6    0.30    0.79
  -1   8  -6    0.41    0.75
   1  -8   7   41.25    2.15
   1  -8   7   41.56    2.14
  -1  -8  -7   38.52    2.10
  -1   8   7   42.80    2.24
  -1   8   7   42.83    2.29
   1   8  -7   41.63    2.29
  -1   8   7   40.46    2.14
   1   8   7   41.45    2.21
  -1   8  -7   36.68    2.13
  -1  -8   7   44.34    2.29
  -1   8  -7   39.60    2.15
  -1  -8   7   41.55    2.18
   1   8   7   40.78    2.15
   1   8   7   41.81    2.18
   1   8  -8    0.18    0.39
  -1   8   8    1.06    0.42
   1  -8   8   -0.04    0.28
  -1   8   8    0.45    0.55
   1   8   8    0.18    0.33
  -1  -8   8    0.03    0.49
   2   8   0  308.31   13.96
  -2   8   0  298.89   14.02
  -2   8   0  303.10   15.21
  -2   8   0  316.93   14.02
  -2  -8   0  289.83   14.01
  -2   8   0  319.88   13.96
   2   8   0  316.28   15.19
  -2   8   0  307.64   13.88
  -2  -8   0  296.96   15.82
   2  -8   0  344.42   15.89
   2   8   0  305.29   13.99
   2   8   0  310.75   15.11
   2   8   0  301.28   13.94
  -2   8   0  308.85   14.01
   2  -8   1   12.79    2.61
  -2   8   1   11.87    2.39
  -2   8   1   13.82    2.03
   2   8  -1   13.20    1.59
   2   8  -1   14.57    1.47
  -2   8   1   13.58    1.33
  -2   8   1   15.32    1.52
  -2   8   1   12.71    1.45
   2   8  -1   12.09    2.56
   2   8  -1   11.03    2.19
  -2   8   1   16.31    1.24
  -2  -8  -1   10.03    2.58
  -2  -8   1   12.02    1.62
   2   8   1   13.97    2.63
  -2   8  -1    9.70    2.38
   2   8   1   13.92    1.39
  -2   8  -1   14.22    1.48
  -2   8  -1   12.15    1.29
  -2   8  -1   13.85    1.76
  -2  -8   1    8.99    2.70
   2   8   1   12.39    1.53
   2   8   1   15.21    1.41
   2  -8  -1   16.32    3.25
   2   8   1   14.33    1.45
  -2   8  -1   13.39    1.40
   2   8   1   12.76    3.07
  -2   8   2  269.80   12.44
   2   8  -2  285.24   14.05
  -2   8   2  269.27   13.87
   2   8  -2  273.59   13.85
  -2   8   2  246.88   12.59
   2   8  -2  289.80   12.87
  -2  -8  -2  246.62   14.38
  -2   8   2  271.37   12.50
   2  -8   2  305.19   14.59
   2   8  -2  276.30   12.52
  -2   8   2  254.04   13.63
  -2   8  -2  269.81   12.65
   2   8   2  280.80   12.43
  -2   8  -2  287.43   12.53
   2   8   2  284.69   12.40
   2   8   2  289.66   12.47
   2  -8  -2  290.13   14.09
  -2  -8   2  240.83   15.39
   2   8   2  282.50   13.73
   2   8   2  272.76   12.48
  -2  -8   2  271.63   12.55
  -2   8  -2  268.32   12.51
  -2   8  -2  275.37   14.29
  -2  -8  -3   12.15    3.34
  -2   8   3   14.19    1.50
   2   8  -3   18.66    3.42
   2  -8   3   11.08    2.95
  -2   8   3   13.74    1.32
  -2   8   3   10.44    2.49
  -2   8   3    6.98    2.39
  -2   8   3   11.54    1.70
  -2   8   3   11.28    1.54
   2   8  -3   12.35    1.86
   2  -8   3   21.44    3.28
  -2   8   3   14.43    1.38
   2   8   3   16.12    1.66
  -2   8  -3   12.67    1.51
   2   8   3   11.60    1.41
   2   8   3   13.31    2.58
  -2   8  -3   10.81    3.33
  -2  -8   3    9.74    3.35
   2   8   3   14.70    1.64
  -2  -8   3    9.00    1.33
   2   8   3   11.62    1.42
   2  -8  -3   10.13    2.70
  -2   8  -3   12.39    1.74
  -2   8  -3   14.92    1.54
  -2   8  -3   12.33    1.71
  -2   8   4   60.22    3.14
   2  -8   4   58.41    3.14
  -2   8   4   56.48    3.33
  -2   8   4   56.03    5.57
   2   8  -4   61.30    3.55
   2  -8   4   53.65    6.96
  -2  -8  -4   47.35    3.43
  -2   8   4   56.35    3.09
  -2   8   4   57.94    3.09
   2   8   4   58.19    5.07
  -2  -8   4   57.51    3.25
  -2   8  -4   55.38    3.17
  -2   8  -4   57.41    3.21
   2   8   4   58.93    3.16
  -2  -8   4   59.76    3.40
   2   8   4   59.21    3.06
  -2   8  -4   46.08    7.01
  -2   8  -4   56.50    3.38
   2   8   4   59.63    3.25
   2   8   4   60.21    3.61
  -2   8  -4   57.97    3.20
  -2   8   5    5.00    0.93
  -2  -8  -5    6.66    4.78
   2   8  -5    4.60    1.38
  -2   8   5    2.46    0.94
  -2   8   5    5.32    1.09
   2  -8   5    4.64    0.93
  -2   8   5    8.81    3.90
   2  -8   5    2.18    4.93
  -2   8   5    3.32    0.87
  -2  -8   5    3.84    0.88
   2   8   5    4.20    1.01
  -2   8  -5    2.70    0.95
   2   8   5    5.61    0.99
  -2   8  -5   -0.75    4.42
   2   8   5    3.69    0.85
   2   8   5    0.15    2.73
  -2  -8   5    5.78    1.25
  -2   8  -5    3.88    0.97
   2  -8   6   27.45    1.81
  -2   8   6   25.20    1.94
   2  -8   6   23.82    1.69
  -2   8   6   25.47    1.86
   2   8  -6   24.72    2.21
  -2   8   6   23.57    1.70
  -2  -8   6   21.61    1.67
   2   8   6   24.39    1.70
  -2   8  -6   25.06    1.80
   2   8   6   24.12    1.62
  -2  -8   6   28.07    1.98
   2   8   6   23.16    1.77
  -2   8   7   -0.06    0.55
   2  -8   7    1.09    0.63
   2  -8   7   -0.81    0.43
   2   8  -7    0.49    0.69
  -2   8   7   -0.10    0.63
  -2  -8  -7    0.54    0.47
  -2   8   7    0.17    0.60
  -2  -8   7    0.51    0.56
  -2   8  -7    0.92    0.50
   2   8   7    0.39    0.52
  -2  -8   7   -0.05    0.51
   2   8   7    0.23    0.66
  -3   8   0   -0.48    0.91
   3   8   0    0.87    0.74
  -3   8   0   -1.81    0.86
  -3   8   0   -0.02    2.12
  -3  -8   0    0.87    0.98
  -3   8   0   -0.70    0.86
   3   8   0   -0.56    1.84
  -3  -8   0   -2.23    2.44
   3   8   0   -0.36    0.83
  -3   8   1  200.22   10.68
  -3   8   1  201.25    9.13
  -3  -8  -1  170.19   11.26
  -3   8   1  181.27    9.10
   3   8  -1  213.84   10.60
  -3   8   1  215.56    9.21
  -3   8   1  197.52    9.09
  -3   8  -1  202.63    9.38
   3  -8  -1  217.47   11.23
   3   8   1  210.40    9.09
   3   8   1  203.76   10.45
  -3   8  -1  163.32    9.48
  -3   8  -1  208.24   11.02
  -3   8  -1  195.95    9.06
   3   8   1  188.76    9.00
  -3  -8   1  199.75    9.13
  -3   8  -1  197.95    9.20
  -3  -8   1  170.24   11.32
  -3  -8  -2    7.80    3.38
  -3   8   2   16.58    1.87
  -3   8   2   16.24    1.61
  -3   8   2   15.51    1.36
   3   8  -2   11.92    1.60
  -3  -8  -2   11.40    1.91
   3   8  -2   13.90    3.25
  -3   8   2   11.82    2.79
  -3   8   2   13.93    1.40
   3   8   2   16.69    1.56
   3   8   2   13.22    1.69
  -3   8  -2   13.93    1.47
  -3  -8   2   14.48    1.71
   3   8   2   17.48    2.67
   3  -8  -2   10.69    2.75
  -3   8  -2   15.33    3.41
  -3  -8   2   10.11    3.12
  -3   8  -2   15.73    1.82
   3   8   2   14.20    1.50
  -3   8  -2   13.24    1.71
  -3   8  -2   17.29    1.72
  -3   8   3   67.46    5.96
  -3   8   3   72.25    3.67
   3  -8   3   68.83    9.11
   3   8  -3   77.30    3.92
  -3   8   3   69.48    3.93
   3  -8   3   70.22    8.23
  -3  -8  -3   48.58   10.77
  -3   8   3   76.38    3.73
   3  -8   3   71.79    3.84
  -3  -8  -3   65.25    9.32
  -3  -8  -3   65.52    4.03
  -3   8   3   73.93    3.67
   3   8  -3   77.00   10.66
  -3  -8   3   76.23    3.98
   3   8   3   77.37    3.78
  -3  -8   3   70.57    4.05
   3   8   3   77.61    5.54
   3   8   3   79.09    3.99
  -3   8  -3   77.63    7.03
  -3   8  -3   75.40    3.85
  -3   8  -3   76.04    3.79
  -3   8  -3   74.41    3.93
   3   8   3   76.24    3.75
  -3   8   4    1.25    0.84
  -3   8   4   -0.24    1.00
   3  -8   4    0.39    0.84
   3  -8   4    2.07    4.34
  -3   8   4   -0.34    0.75
   3   8  -4    3.78    4.47
   3   8  -4    0.35    1.07
  -3   8   4   -1.48    0.80
  -3  -8  -4    0.46    1.06
  -3   8  -4   -0.33    0.86
   3   8   4    0.39    0.91
   3   8   4   -0.25    0.81
   3   8   4    2.50    2.40
   3   8   4   -0.18    0.85
  -3   8  -4    1.15    0.88
  -3  -8   4   -0.22    1.04
  -3   8  -4    6.81    3.85
  -3   8  -4   -0.47    1.01
   3   8  -5   45.42    2.89
   3  -8   5   41.89    2.39
  -3   8   5   39.07    2.39
  -3   8   5   39.97    2.61
   3   8   5   40.64    2.40
  -3  -8   5   40.46    2.69
   3   8   5   43.68    2.71
  -3   8   6    1.91    0.65
  -3   8   6    1.70    0.75
  -3  -8  -6    0.73    0.69
   3  -8   6    1.45    0.62
   3  -8   6    2.37    0.71
  -3   8   6    1.34    0.79
   3   8  -6    1.82    1.00
   3   8   6    3.72    0.72
  -3  -8   6    2.45    0.70
  -3  -8   6    1.78    0.88
   3   8   6    1.49    0.91
   3   8   6    1.91    0.61
  -3   8  -6    2.35    0.79
   3   8   6    2.83    1.14
  -3  -8  -7   11.98    0.89
  -3   8   7   12.34    1.05
  -3   8   7   10.76    0.94
   3  -8   7   12.49    0.95
  -3   8   7    9.54    1.57
   3   8  -7    9.20    1.12
  -3  -8   7   11.28    0.94
  -3  -8   7   10.90    0.97
  -3   8  -7   12.25    0.93
   3   8   7   12.20    0.90
  -4   8   0  120.27    5.55
  -4  -8   0  111.18    5.48
  -4  -8   0   98.67    8.22
  -4  -8   0  102.58    5.69
  -4   8   0  115.58    5.61
   4   8   0  117.26    5.47
  -4   8   0  117.04    5.59
   4   8   0  110.91    5.37
  -4   8   0  112.03    7.71
   4   8   0  110.10    7.04
  -4   8   0  117.60    5.36
  -4   8   1   15.70    1.89
   4   8  -1   18.70    1.60
  -4  -8  -1   26.19    6.13
  -4   8   1   15.78    1.71
  -4   8   1   14.80    2.95
  -4   8   1   17.35    1.68
  -4  -8  -1   15.72    2.05
  -4   8   1   16.69    1.48
   4   8  -1   18.27    1.69
   4   8   1   17.00    1.67
  -4   8  -1   16.50    1.92
  -4  -8   1   11.25    3.35
  -4   8  -1   17.50    1.91
   4   8   1   10.42    3.14
  -4  -8   1   17.79    1.92
   4   8   1   17.44    1.61
  -4  -8   1   16.63    1.73
  -4   8  -1   13.40    3.41
  -4   8  -1   18.28    1.94
  -4   8  -1   21.18    1.58
  -4  -8  -2   46.52    6.43
   4   8  -2   44.26    2.63
   4   8  -2   46.34    2.71
  -4   8   2   42.72    2.47
  -4   8   2   48.01    2.65
  -4   8   2   39.31    5.13
  -4   8   2   43.72    2.86
  -4   8   2   45.33    2.63
  -4  -8  -2   41.14    2.87
  -4   8  -2   46.76    2.85
   4   8   2   46.98    2.69
  -4   8  -2   44.04    2.81
  -4   8  -2   38.49    6.15
   4   8   2   46.30    4.70
  -4  -8   2   37.98    2.84
   4   8   2   45.58    2.61
  -4  -8   2   41.12    2.70
  -4   8  -2   48.35    2.94
  -4   8  -2   48.64    2.64
   4  -8  -2   49.25    5.33
  -4  -8   2   51.42    6.67
  -4  -8  -3    1.91    1.08
  -4  -8  -3    9.82    4.35
  -4   8   3    1.54    1.12
   4  -8   3   -1.23    5.08
  -4   8   3    1.06    0.80
   4  -8   3    1.45    0.89
   4  -8   3   -0.89    3.21
   4   8  -3    0.09    0.86
   4   8  -3    2.68    3.94
  -4   8   3    1.90    0.87
  -4   8   3    0.55    0.72
   4   8   3    3.07    1.08
  -4  -8   3    1.06    0.89
  -4   8  -3    1.17    1.21
   4   8   3    1.16    0.87
  -4   8  -3   -3.93    3.57
   4  -8  -3   -0.63    3.59
  -4  -8   3    0.39    1.07
  -4   8  -3    1.52    0.99
   4   8   3   -1.00    2.51
  -4   8  -3    0.72    0.93
  -4   8  -3    2.50    0.96
   4  -8   4  101.67   11.78
  -4  -8  -4   80.77    4.21
   4  -8   4   89.93    4.13
  -4   8   4   79.62    4.32
  -4   8   4   79.41    4.12
   4   8  -4   77.88    8.59
   4   8  -4   83.75    4.34
  -4   8   4   81.66    4.11
  -4  -8   4   85.22    4.38
   4   8   4   89.28    4.16
  -4   8  -4   71.20    8.66
  -4   8  -4   88.35    4.23
   4   8   4   82.40    4.47
  -4   8  -4   86.02    4.33
  -4   8  -4   82.03    4.14
   4   8   4   75.53    6.56
  -4   8   5    9.76    1.43
  -4   8   5    7.63    0.93
   4  -8   5    7.33    1.14
   4   8  -5    6.53    1.06
  -4   8   5    5.68    0.85
  -4  -8  -5    5.06    0.86
   4   8   5    9.12    1.22
  -4  -8   5    6.95    1.09
  -4  -8   5    6.72    1.01
   4   8   5    6.85    0.87
  -4   8  -5    6.78    0.98
  -4   8  -5    4.44    0.87
   4   8  -6   34.46    2.19
  -4   8   6   33.70    2.05
  -4   8   6   37.12    2.02
  -4   8   6   37.54    1.93
   4  -8   6   37.82    1.97
   4   8  -6   36.76    2.18
   4  -8   6   33.76    1.89
  -4  -8  -6   34.96    1.94
  -4  -8   6   33.52    2.01
  -4   8  -6   38.38    2.00
   4   8   6   34.46    1.91
  -4  -8   6   36.74    2.13
   4  -8   7   -0.20    0.35
  -4  -8  -7    0.10    0.35
   4   8  -7   -0.07    0.52
  -4   8   7   -0.17    0.49
   4   8   7    0.08    0.37
  -4   8  -7    0.86    0.38
  -4  -8   7    0.01    0.48
  -5  -8   0   -1.37    3.58
   5   8   0    0.60    0.86
  -5   8   0    0.85    1.06
  -5   8   0   -1.06    0.77
  -5  -8   0    0.91    0.98
   5   8   0    0.83    2.43
  -5   8   0    0.28    3.52
  -5   8   0   -0.12    1.01
  -5  -8   0   -1.35    1.07
  -5   8   0   -2.39    1.08
  -5   8   1   61.14    3.13
  -5   8   1   55.21    6.63
  -5  -8  -1   59.38    3.52
  -5   8   1   58.33    3.45
   5   8  -1   60.77    3.23
  -5   8   1   62.22    3.29
  -5  -8  -1   53.95    7.06
   5   8  -1   62.97    3.30
  -5   8   1   63.55    3.38
   5   8  -1   50.09    5.66
  -5   8  -1   64.35    3.52
  -5   8  -1   58.21    7.16
  -5   8  -1   59.23    3.47
   5   8   1   49.96    5.56
  -5   8  -1   60.32    3.53
  -5   8  -1   63.14    3.20
  -5  -8   1   70.41    9.40
   5   8   1   64.58    3.29
  -5  -8   1   55.74    3.27
  -5  -8   1   56.04    3.40
  -5   8   2    0.87    0.82
  -5   8   2   -1.51    0.98
   5   8  -2    1.74    0.95
  -5  -8  -2    4.01    3.99
   5   8  -2   -2.23    3.28
  -5   8   2   -0.45    0.75
   5   8  -2   -0.98    0.83
  -5  -8  -2    1.38    1.00
  -5   8   2   -0.82    0.86
  -5   8   2   -2.25    3.97
  -5  -8   2    0.89    0.97
  -5   8  -2   -6.47    4.30
  -5  -8   2    2.12    1.01
   5   8   2   -3.58    2.33
  -5   8  -2   -0.66    0.80
  -5  -8   2    7.07    4.39
  -5   8  -2    1.53    1.28
  -5   8  -2    0.89    0.92
   5   8   2    0.60    0.92
  -5   8  -2    0.26    1.07
  -5   8   3   47.37    2.75
   5   8  -3   48.71    2.78
  -5   8   3   47.55    2.64
  -5   8   3   45.18    2.69
   5  -8   3   50.72    2.71
   5   8  -3   52.24    7.08
  -5  -8  -3   46.84    2.72
  -5  -8  -3   49.56    2.90
  -5   8  -3   50.51    2.90
  -5   8  -3   52.32    2.83
  -5   8  -3   47.50    3.16
  -5   8  -3   64.76    8.49
   5   8   3   48.34    2.72
  -5  -8   3   48.86    2.93
  -5   8  -3   53.07    2.81
  -5  -8   3   49.10    2.91
   5   8   3   54.50    2.76
   5   8   3   57.30    5.68
  -5   8   4    1.00    0.86
  -5  -8  -4    0.38    0.74
  -5  -8  -4   -0.82    0.73
  -5   8   4   -0.04    0.71
   5   8  -4    1.14    0.76
  -5   8  -4   -0.98    0.72
  -5   8  -4    0.89    0.96
   5   8   4   -1.10    0.67
  -5   8  -4    0.76    0.83
   5   8   4    2.30    0.65
  -5  -8   4   -0.54    0.92
  -5  -8  -5   65.04    3.22
  -5   8   5   62.39    3.46
   5   8  -5   67.56    3.34
   5  -8   5   65.99    3.18
  -5   8  -5   63.24    3.28
   5   8   5   61.40    3.18
   5   8   5   67.34    3.19
  -5   8  -5   64.61    3.23
  -5  -8   5   69.40    3.43
   5   8  -6   -0.30    0.56
   5   8  -6    0.08    0.82
   5  -8   6    0.31    0.45
  -5  -8  -6    0.27    0.47
   5  -8   6   -0.45    0.56
  -5   8  -6   -0.01    0.41
  -5  -8   6    0.63    0.60
   5   8   6   -1.01    0.60
  -6  -8   0  109.09    5.34
  -6  -8   0   99.51    9.53
   6   8   0  109.97    5.23
  -6   8   0  104.32    5.10
  -6   8   0  110.83    5.43
  -6   8   0  110.89    5.35
  -6  -8   0  104.74    5.23
  -6   8   0  106.16    5.38
   6   8  -1    4.92    1.05
  -6   8   1    2.86    1.04
  -6   8   1    1.39    1.05
   6   8  -1   -1.14    3.86
  -6  -8  -1    9.73    5.86
  -6   8   1    5.34    1.17
  -6  -8  -1    3.35    1.08
   6   8   1    4.31    0.96
  -6   8  -1    4.78    0.85
   6   8   1    9.80    3.82
  -6   8  -1    4.08    1.19
  -6   8  -1    3.34    1.25
  -6   8  -1    4.63    1.22
  -6  -8   1    3.58    0.93
  -6  -8   1    3.77    1.00
  -6  -8  -2   23.60    1.64
  -6   8   2   21.57    2.41
  -6  -8  -2   26.61    2.03
   6   8  -2   26.23    1.96
  -6   8   2   20.57    2.62
  -6   8   2   25.79    1.95
  -6   8  -2   24.22    1.99
   6   8   2   27.42    1.80
  -6   8  -2   27.13    1.96
   6   8   2   27.01    1.72
  -6   8  -2   23.49    2.33
  -6  -8   2   20.64    2.64
  -6  -8   2   29.25    2.64
  -6   8  -2   24.83    2.06
   6   8  -3    0.72    0.85
  -6  -8  -3    1.08    0.79
  -6  -8  -3   -0.29    0.58
   6  -8   3    0.45    0.77
  -6   8   3   -0.52    0.87
  -6   8   3    1.60    0.66
  -6   8  -3    1.91    0.84
  -6   8  -3   -0.41    0.65
  -6  -8   3   -1.23    0.77
  -6   8  -3   -0.69    0.73
   6   8   3    1.22    0.62
   6   8   3   -0.24    0.65
  -6   8  -3    0.62    1.07
  -6  -8   3    1.22    0.85
  -6  -8  -4   44.07    2.25
  -6  -8  -4   41.16    2.35
   6  -8   4   42.89    2.23
   6   8  -4   44.64    2.42
   6   8  -4   42.32    2.75
  -6  -8   4   44.37    2.51
  -6   8  -4   43.56    2.32
  -6   8  -4   45.78    2.50
  -6   8  -4   46.14    2.28
   6   8   4   42.43    2.25
   6   8   4   38.29    2.23
  -6  -8  -5    0.80    0.50
   6   8  -5   -0.96    0.54
   6  -8   5    0.07    0.49
  -6   8  -5   -0.82    0.53
   6   8   5    0.20    0.63
  -6  -8   5    1.06    0.65
  -6   8  -5   -0.07    0.45
   6   8   5    0.23    0.51
   7   8   0   -0.46    0.76
  -7   8   0   -0.16    0.91
  -7   8   0    1.00    0.94
  -7   8   0    0.46    0.88
  -7  -8   0   -0.76    0.78
  -7   8   1   66.38    3.59
  -7  -8  -1   73.13    3.54
   7   8  -1   70.18    3.51
  -7   8   1   65.33    3.60
  -7   8   1   64.44    3.57
   7   8   1   69.35    3.43
  -7   8  -1   65.61    3.68
   7   8   1   76.66    3.64
  -7  -8   1   70.78    3.53
  -7   8  -1   68.48    3.62
  -7  -8   1   66.79    3.47
  -7   8  -1   71.07    3.61
  -7  -8  -2    0.92    0.75
  -7   8   2    0.28    0.69
  -7   8   2    1.53    0.77
   7   8  -2    1.04    0.77
  -7   8   2   -0.13    0.68
  -7   8  -2    0.48    0.75
  -7   8  -2   -0.73    0.75
   7   8   2    0.20    0.62
  -7  -8   2    0.94    0.66
  -7   8  -2   -0.61    0.94
  -7  -8   2    0.63    0.77
   7   8   2   -0.68    0.59
   7  -8   3   26.37    1.53
   7   8  -3   26.70    1.74
  -7  -8  -3   30.58    1.62
  -7   8  -3   26.86    1.66
  -7  -8   3   28.39    1.80
  -7   8  -3   24.10    1.70
   7   8   3   28.05    1.84
   7   8   3   26.89    1.59
  -7   8  -3   28.75    1.88
  -7  -8  -4    2.55    0.47
  -7  -8  -4    1.66    0.58
   7  -8   4    1.15    0.48
   7   8  -4    2.33    0.59
  -7  -8   4    1.23    0.71
   7   8   4    2.33    0.46
  -7   8  -4    3.36    0.76
  -7   8  -4    3.20    0.58
  -8   8   0   19.51    1.41
  -8  -8   0   21.69    1.32
  -8   8   0   17.02    1.41
  -8   8   0   17.85    1.36
   8   8   0   19.94    1.27
  -8   8   1   -0.70    0.61
  -8  -8  -1    0.70    0.54
  -8   8   1    0.11    0.59
  -8   8   1    2.48    0.62
   8   8  -1   -0.39    0.50
  -8   8  -1    0.46    0.58
  -8  -8   1    1.79    0.79
   8   8   1   -0.48    0.47
  -8   8  -1   -0.58    0.62
  -8   8  -1    1.04    0.63
  -8  -8   1   -0.20    0.50
  -8  -8  -2   21.24    1.24
  -8   8   2   20.84    1.30
  -8   8   2   22.54    1.59
   8   8  -2   22.24    1.31
  -8   8  -2   21.32    1.33
   8   8   2   22.79    1.25
  -8   8  -2   21.80    1.40
  -8  -8   2   20.12    1.42
  -8  -8   2   18.96    1.30
  -8   8  -2   19.46    1.31
  -8  -8  -3    7.17    0.69
   8   8  -3    8.03    0.77
  -8   8  -3    9.08    0.78
  -8   8  -3    7.31    0.80
  -8  -8   3    8.12    0.92
   0   9   0   -0.08    0.68
   0  -9   0   -1.14    1.99
   0   9   0    1.35    1.93
   0   9   0   -1.47    0.77
   0   9   1   14.30    1.60
   0   9  -1   15.16    1.68
   0   9  -1   12.39    2.62
   0  -9   1   19.73    4.20
   0   9  -1   13.58    1.66
   0   9  -1   16.18    1.79
   0   9   1   15.40    1.63
   0  -9  -1   11.34    2.62
   0   9   1    9.61    2.49
   0   9   1   15.34    1.61
   0   9   1   18.07    3.77
   0   9  -1   15.24    1.62
   0   9  -2   -0.26    0.80
   0   9   2    1.20    2.28
   0  -9   2   -0.84    2.10
   0   9   2   -0.71    0.90
   0   9   2   -0.06    0.75
   0   9  -2   -0.57    0.72
   0   9  -2   -0.08    0.98
   0   9   2    0.79    0.92
   0  -9  -2   -1.85    2.27
   0   9   2   -0.51    0.78
   0   9   2    0.14    0.69
   0   9   2   -0.91    2.31
   0   9  -2    3.79    2.70
   0  -9   3   18.70    2.08
   0   9  -3   18.69    1.65
   0   9   3   21.56    1.65
   0   9  -3   18.54    4.21
   0   9  -3   19.34    1.69
   0   9   3   20.15    1.75
   0   9   3   19.36    1.94
   0   9   3   19.07    1.82
   0   9  -3   20.74    2.09
   0   9   3   12.66    3.15
   0   9   4    3.40    2.86
   0   9  -4   -0.02    0.88
   0   9  -4   -0.16    1.12
   0   9   4   -0.01    1.09
   0   9   4   -0.49    0.76
   0  -9   4    0.53    1.14
   0   9   4   -1.47    0.97
   0   9   4    0.63    0.92
   0   9  -5   -0.40    1.03
   0  -9   5   -0.85    0.92
   0   9  -5    1.76    1.03
   0   9   5   -0.37    0.84
   0   9   5    1.26    1.04
   0   9   5    1.05    0.75
   0  -9   5   -1.18    0.97
   0   9   5   -0.77    0.86
   0   9  -6   -0.16    0.63
   0   9   6   -0.03    0.68
   0   9   6    1.01    0.75
   0  -9   6   -1.15    0.82
   0  -9   6   -0.43    0.75
   0   9  -6    0.99    0.82
   0   9   6    0.62    0.67
   0  -9   7    1.38    0.84
   0   9   7    1.08    0.55
   0   9   7    0.52    0.44
   0   9  -7    0.63    0.49
   0  -9   7    0.17    0.50
   0  -9  -7    0.39    0.61
   0   9   7   -0.25    0.50
  -1   9   0    1.57    2.22
   1   9   0    0.02    0.72
   1   9   0   -0.36    2.16
   1   9   0    0.21    0.90
  -1  -9   0    1.27    1.06
   1   9   0   -0.43    0.82
   1   9   0    0.37    1.05
  -1   9   0   -0.59    0.79
   1   9   0    5.11    2.43
  -1  -9   0   -1.18    2.20
   1  -9   0   -1.33    2.03
   1   9  -1    0.94    0.84
  -1   9   1   -0.50    0.67
   1   9  -1    2.07    2.66
  -1  -9  -1    1.22    2.43
   1   9  -1    1.64    1.00
  -1   9   1    1.95    0.89
   1   9  -1    2.00    2.41
   1   9  -1    0.93    0.72
  -1   9   1   -1.91    2.12
   1  -9   1    1.25    2.44
  -1   9   1    1.30    0.92
  -1   9   1    0.38    0.72
   1   9   1    1.47    1.57
   1   9   1   -1.23    2.14
  -1   9  -1    1.30    2.23
  -1   9  -1    0.29    0.75
   1   9   1   -0.73    1.10
  -1  -9   1    3.21    2.56
   1   9   1    0.21    2.16
  -1   9  -1    0.62    0.91
   1   9   1    1.63    1.19
   1  -9  -1    4.60    2.18
  -1   9  -1    1.86    0.87
  -1  -9  -2   26.32    4.93
  -1   9   2   28.42    4.15
  -1   9   2   25.83    1.72
  -1   9   2   25.98    1.94
   1  -9   2   27.50    4.46
  -1   9   2   24.64    1.77
   1   9  -2   20.91    3.85
   1   9  -2   22.16    1.72
   1   9  -2   23.39    2.12
  -1   9   2   20.77    2.09
  -1   9   2   23.32    1.92
  -1   9  -2   23.66    1.88
  -1   9  -2   16.30    3.23
  -1  -9   2   24.37    2.02
   1   9   2   27.02    2.01
  -1   9  -2   23.45    1.78
  -1  -9   2   24.63    3.77
   1   9   2   23.34    1.84
  -1   9  -2   26.73    2.07
   1   9   2   24.13    1.68
  -1   9  -2   25.37    1.94
   1   9   2   16.13    3.04
   1   9   2   22.50    1.85
   1   9   2   30.79    4.52
  -1   9   3    1.77    0.86
   1   9  -3   -1.79    5.33
  -1   9   3    1.81    0.81
  -1   9   3   -0.46    2.68
  -1   9   3    2.30    1.17
  -1   9   3    2.37    0.92
  -1   9   3    2.05    1.05
   1   9  -3    2.94    1.28
   1  -9   3    0.21    2.89
   1   9  -3    2.09    0.87
  -1   9  -3    2.80    0.95
  -1  -9   3    1.95    1.13
  -1   9  -3    2.01    1.09
   1   9   3    1.03    2.27
  -1   9  -3    1.66    3.05
   1   9   3    1.65    0.84
  -1  -9   3    8.38    3.36
   1   9   3    0.82    1.01
   1   9   3    3.05    0.96
   1   9   3    3.61    1.08
  -1   9  -3    1.84    0.89
   1  -9  -3   -3.28    2.91
  -1   9   4   -1.01    4.12
  -1   9   4    0.20    1.02
   1   9  -4    1.03    1.23
  -1   9   4    0.43    0.79
  -1   9   4    0.58    1.01
  -1   9   4    1.34    0.92
   1   9  -4    0.30    0.81
  -1  -9  -4   -0.74    1.26
  -1   9  -4   -0.58    4.03
   1   9   4    1.36    1.00
  -1  -9   4    0.36    1.04
   1   9   4   -0.23    0.83
  -1   9  -4   -0.80    0.92
   1   9   4    0.30    0.85
   1   9   4   -1.23    0.99
   1   9   4    0.17    2.82
  -1   9  -4    0.84    0.95
   1  -9   5   15.95    1.60
  -1   9   5   13.71    1.50
  -1   9   5   17.80    2.10
   1   9  -5   13.66    2.06
  -1   9   5   15.28    1.53
   1   9  -5   14.66    1.56
   1  -9   5   15.92    1.75
  -1   9   5   16.05    1.74
  -1   9  -5   14.94    1.64
   1   9   5   15.70    1.46
  -1  -9   5   12.49    1.88
   1   9   5   15.34    1.52
   1   9   5   13.66    1.67
  -1   9   6    0.67    0.74
   1  -9   6    2.32    0.67
   1   9  -6   -0.45    0.84
   1  -9   6    0.73    0.78
  -1   9   6   -0.11    0.66
  -1   9   6    1.03    0.77
  -1  -9   6    0.54    0.76
  -1   9  -6    0.60    0.72
   1   9   6    0.37    0.59
  -1  -9   6    0.82    0.83
  -1   9  -6   -0.22    0.63
   1   9   6   -0.51    0.64
   1   9   6    1.00    0.67
   1  -9   7    1.27    0.73
  -1   9   7    1.77    0.54
  -1   9   7    0.69    0.41
   1  -9   7    1.27    0.50
  -1  -9  -7    0.57    0.43
   1   9  -7    0.97    0.57
  -1   9   7    0.76    0.52
  -1   9  -7    1.26    0.46
   1   9   7    1.50    0.81
   1   9   7    2.45    0.45
  -1  -9   7    1.20    0.51
   1   9   7    0.84    0.47
  -1  -9   7    3.04    0.72
   2   9   0    1.21    3.32
   2   9   0    3.96    0.89
  -2   9   0    4.34    1.01
  -2   9   0    3.28    1.01
  -2  -9   0    3.13    1.07
  -2  -9   0    8.19    3.04
   2   9   0    4.68    0.89
   2  -9   0    2.74    2.47
  -2   9   0    6.27    2.48
  -2   9   0    4.49    0.82
   2   9   0    3.80    0.94
  -2   9   0    3.00    0.89
   2   9   0    4.33    2.77
   2   9  -1   19.59    3.77
  -2   9   1   21.73    3.94
   2  -9   1   17.01    3.24
  -2   9   1   18.37    1.46
  -2   9   1   18.04    1.63
   2   9  -1   15.42    1.69
   2   9  -1   18.15    1.74
  -2  -9  -1   17.72    3.67
  -2   9   1   18.65    1.78
  -2   9   1   19.71    1.79
   2   9   1   17.62    2.09
  -2   9  -1   19.28    1.76
  -2   9  -1   16.73    1.88
   2   9   1   15.83    1.75
  -2   9  -1   18.24    1.77
  -2  -9   1   13.67    3.46
  -2   9  -1   23.57    4.16
   2  -9  -1   20.28    3.47
  -2  -9   1   21.11    1.92
   2   9   1   17.44    1.68
   2   9   1   12.71    3.11
   2   9   1   19.15    1.71
  -2   9  -1   18.93    1.56
   2   9   1   24.23    4.04
  -2   9   2    7.95    1.23
   2  -9   2    6.30    3.93
  -2   9   2    8.08    1.12
  -2  -9  -2    7.24    4.44
  -2   9   2    9.70    1.63
   2   9  -2    9.99    1.65
   2   9  -2    1.43    3.12
   2   9  -2    7.44    1.20
  -2   9   2    6.44    0.92
   2  -9  -2    8.15    3.14
  -2   9  -2    6.28    1.06
   2   9   2    5.87    0.94
   2   9   2    7.48    1.14
  -2  -9   2    6.65    1.22
  -2   9  -2    6.28    1.01
  -2   9  -2    6.61    1.13
  -2   9  -2   10.09    1.28
  -2  -9   2    1.08    4.74
   2   9   2    5.62    0.91
   2   9   2    6.66    1.03
  -2   9   3    0.37    0.95
  -2   9   3    2.51    0.89
  -2  -9  -3    2.46    3.54
  -2   9   3    0.39    0.89
   2  -9   3    3.76    3.60
  -2  -9  -3    1.13    1.18
   2   9  -3    1.91    1.22
  -2   9   3    2.52    1.18
  -2   9   3    0.19    0.75
   2   9   3    1.41    0.92
   2  -9  -3    2.74    3.24
  -2  -9   3    1.40    1.07
   2   9   3    2.47    2.49
   2   9   3    2.11    1.02
  -2   9  -3   -3.48    3.49
   2   9   3    0.54    0.98
  -2   9  -3    0.98    1.00
  -2   9  -3    2.63    1.10
  -2   9  -3    0.07    0.99
   2   9   3    0.25    0.79
  -2  -9   3    8.64    4.48
  -2   9  -3    0.13    0.86
  -2  -9  -4    0.72    1.10
  -2   9   4    0.66    0.86
  -2   9   4    1.09    0.83
  -2   9   4    2.08    1.03
   2   9  -4    1.34    1.24
  -2   9   4    2.02    0.85
  -2   9  -4    0.58    0.90
   2   9   4    1.75    0.92
   2   9   4    1.49    2.82
  -2   9  -4    0.45    1.00
   2   9   4    1.12    0.78
   2   9   4    1.09    0.88
  -2  -9   4    0.24    1.10
  -2   9  -4    1.97    4.27
  -2   9  -4    0.20    0.87
  -2   9   5    0.82    0.99
   2  -9   5   -1.05    0.77
   2  -9   5    1.01    1.18
  -2   9   5   -0.02    0.76
  -2   9   5    0.48    0.76
   2   9   5   -1.22    0.77
  -2   9  -5   -1.27    1.06
   2   9   5   -0.79    0.66
   2   9   5    1.16    1.06
  -2   9  -5    0.39    0.77
   2   9  -6   -0.95    0.85
   2  -9   6   -0.74    0.57
  -2   9   6    0.75    0.67
   2  -9   6   -1.19    0.65
  -2   9   6   -0.19    0.70
  -2   9   6   -0.14    0.59
   2   9   6    0.08    0.65
   2   9   6   -0.17    0.54
   2   9   6    0.17    0.62
  -2   9  -6   -1.20    0.58
  -2  -9   6    0.90    0.96
  -2  -9   6    0.53    0.82
   2   9  -7    0.14    0.90
  -2   9   7   -0.33    0.61
   2  -9   7   -0.79    0.58
  -2  -9  -7   -0.30    0.40
  -2   9   7   -0.02    0.42
  -2   9   7    0.05    0.46
   2   9   7   -1.07    0.81
   2   9   7    0.17    0.54
  -2   9  -7    0.45    0.38
  -2  -9   7   -0.18    0.42
  -3   9   0    0.71    0.94
   3   9   0    0.32    0.84
  -3   9   0    0.92    0.87
   3  -9   0    1.82    4.63
  -3  -9   0    0.00    0.99
   3   9   0    0.07    0.82
  -3   9   0   -0.37    0.98
  -3   9   0    1.00    0.97
  -3   9   0   -1.87    0.78
  -3   9   1    1.27    2.60
   3  -9   1   -2.13    3.11
  -3   9   1    1.34    1.04
  -3   9   1    0.73    0.88
  -3  -9  -1    0.08    2.82
   3   9  -1   -0.82    0.93
   3   9  -1    2.94    3.53
  -3   9   1   -0.30    0.91
  -3   9   1    0.46    0.75
  -3   9   1    0.77    0.84
   3   9  -1   -0.13    0.78
  -3   9  -1    0.45    1.01
   3   9   1    0.68    0.87
   3   9   1    1.02    2.42
  -3   9  -1   -1.69    2.72
  -3  -9   1   -0.59    0.87
  -3   9  -1    0.37    0.96
  -3   9  -1   -1.40    1.03
   3   9   1    0.44    0.85
   3   9   1   -1.25    0.88
  -3  -9   1    4.48    3.22
  -3   9  -1    0.10    0.81
   3  -9  -1    4.34    2.77
  -3   9  -1   -0.60    0.94
  -3   9   2    0.74    0.76
  -3   9   2    0.58    0.96
  -3   9   2    0.52    0.77
  -3   9   2    1.90    2.71
  -3   9   2   -0.48    0.97
   3   9  -2    3.33    3.41
  -3  -9  -2    4.49    3.20
   3  -9   2   -1.00    3.01
  -3  -9  -2    0.08    1.20
   3   9  -2   -0.53    0.96
   3   9  -2    0.63    0.90
  -3  -9   2    1.02    1.13
   3   9   2    3.21    2.47
   3   9   2    1.52    0.90
  -3  -9   2   -0.98    3.56
   3  -9  -2    3.66    2.80
   3   9   2    0.87    0.84
  -3   9  -2    2.57    1.03
  -3   9  -2   -4.04    3.23
  -3   9  -2    2.15    0.99
  -3  -9   2    0.25    0.98
  -3   9  -2    0.73    1.11
   3   9   2    1.83    0.89
  -3   9   3    1.62    0.76
   3  -9   3    0.46    3.49
  -3   9   3    2.39    0.88
  -3   9   3    1.38    0.88
  -3  -9  -3    1.87    4.31
  -3  -9  -3    1.20    1.10
   3   9  -3    2.87    1.04
   3   9  -3    2.17    1.09
   3   9  -3   -7.77    4.38
  -3   9   3    0.85    1.06
   3   9   3    3.08    2.73
  -3   9  -3    1.09    0.91
   3   9   3    2.47    1.03
  -3  -9   3    2.25    1.08
   3   9   3    2.72    0.93
  -3   9  -3    1.59    3.64
  -3   9  -3    3.07    1.01
  -3   9  -3    0.87    1.12
  -3  -9   3    0.71    1.02
   3  -9  -3   -0.94    3.83
   3   9   3    1.08    0.87
  -3   9   4    2.81    0.85
  -3   9   4    2.86    1.11
   3  -9   4    3.02    1.12
  -3   9   4    2.34    0.87
   3   9  -4    5.46    1.49
   3   9  -4    3.10    1.18
  -3  -9  -4    1.66    1.07
  -3   9  -4    1.96    1.34
  -3  -9   4    1.09    0.99
  -3   9  -4   -3.99    6.37
  -3   9  -4    2.38    1.03
  -3   9  -4    1.98    0.95
   3   9   4    1.46    1.00
   3   9   4    1.34    0.89
   3   9   4    4.09    4.17
   3   9   4    1.42    0.79
  -3   9   5   -0.27    0.72
  -3   9   5   -0.92    0.64
  -3   9   5    0.76    0.83
   3  -9   5    0.12    0.70
  -3   9   5    1.92    0.71
   3   9  -5   -0.01    0.98
  -3   9  -5   -0.39    0.84
  -3  -9   5    0.74    0.86
   3   9   5    0.75    0.85
   3   9   5   -0.15    0.67
   3   9   5   -0.63    0.73
  -3   9   6    2.11    0.70
  -3   9   6    1.17    0.51
   3  -9   6    2.75    0.60
  -3   9   6    1.05    0.69
   3   9  -6    1.64    0.82
  -3  -9  -6    1.86    0.63
   3  -9   6    1.22    0.56
  -3  -9   6    1.01    0.72
  -3   9  -6    1.55    0.63
   3   9   6    1.75    0.59
  -3  -9  -7    0.36    0.34
  -3   9   7   -0.30    0.46
   3   9  -7   -0.17    0.48
  -3  -9   7    0.91    0.48
   3   9   7   -0.27    0.35
  -3   9  -7   -0.37    0.45
  -4  -9   0    0.27    1.02
  -4   9   0    2.13    0.87
  -4  -9   0    0.10    1.18
   4   9   0    0.32    0.87
   4   9   0    4.55    3.02
   4   9   0   -0.25    0.76
  -4  -9   0   -1.34    3.75
  -4   9   0   -0.20    1.01
  -4   9   0    0.60    1.09
  -4   9   0   -1.06    0.95
  -4   9   0    1.29    3.19
  -4   9   1   -0.17    0.99
  -4   9   1    1.20    0.96
  -4  -9  -1    2.30    1.24
   4   9  -1    2.51    0.87
   4   9  -1    2.60    0.98
  -4   9   1    1.59    0.84
   4   9  -1    0.59    2.56
  -4   9   1    1.55    0.97
  -4  -9  -1    1.71    4.77
   4  -9   1   -2.89    3.42
  -4   9   1    3.92    2.87
   4   9   1    0.25    0.86
  -4  -9   1    0.03    1.02
  -4   9  -1    1.36    1.00
  -4   9  -1    1.31    1.19
  -4   9  -1   -4.13    3.20
   4   9   1    0.38    0.83
   4   9   1    7.35    3.24
   4  -9  -1   -4.36    3.51
  -4   9  -1    0.66    0.92
  -4  -9   1    1.45    3.73
  -4  -9   1    1.33    0.97
  -4   9  -1    2.46    1.05
   4   9  -2   10.69    1.67
  -4  -9  -2    9.05    1.43
   4   9  -2    9.55    1.54
  -4   9   2   10.37    1.37
   4   9  -2    6.84    3.86
  -4   9   2   12.26    1.45
  -4  -9  -2   11.54    4.42
  -4   9   2   13.00    1.42
  -4   9   2    9.83    1.59
  -4   9  -2    9.62    1.40
  -4   9  -2    9.43    1.48
  -4  -9   2   11.75    1.79
  -4  -9   2   10.15    4.98
  -4   9  -2   12.05    1.71
  -4   9  -2   10.22    1.25
   4   9   2   12.14    1.60
   4   9   2    9.19    1.51
   4  -9  -2    6.30    3.44
  -4   9  -2    3.94    4.38
  -4   9   3   12.12    1.54
  -4  -9  -3   11.97    1.66
  -4   9   3   12.20    1.35
  -4   9   3   15.16    1.86
  -4   9   3   14.78    1.49
   4  -9   3   19.26    6.46
  -4  -9  -3   18.98   10.59
   4   9  -3   15.85    1.75
   4   9  -3   15.29    1.72
  -4   9  -3   14.07    1.67
  -4   9  -3    3.29    5.01
   4   9   3   16.31    1.74
  -4   9  -3   16.92    2.05
  -4   9  -3   15.22    1.63
   4   9   3   14.26    3.28
  -4  -9   3   13.26    1.83
   4   9   3   16.01    1.54
  -4  -9   3   16.85    1.80
  -4   9   4    0.41    0.67
   4   9  -4   -0.09    0.95
  -4   9   4    0.62    0.88
  -4  -9  -4   -1.07    0.93
   4  -9   4    0.79    0.88
   4   9  -4    2.10    0.85
  -4   9   4    0.71    0.70
   4   9   4   -0.01    0.74
  -4   9  -4    1.36    0.92
  -4   9  -4    0.64    0.94
  -4  -9   4    3.38    1.06
  -4   9  -4    2.08    0.78
   4   9  -5    2.92    0.71
  -4  -9  -5    1.98    0.66
  -4   9   5    0.65    0.60
  -4   9   5    1.13    0.70
   4  -9   5    1.90    0.69
  -4   9   5    1.10    0.78
   4   9  -5    2.73    0.84
   4   9   5    1.04    0.54
  -4   9  -5    1.48    0.73
  -4  -9   5    0.71    0.81
  -4   9  -5    1.56    0.80
  -4  -9  -6    2.25    0.47
  -4   9   6    1.50    0.60
   4  -9   6    2.29    0.68
   4  -9   6    2.11    0.49
  -4   9   6    1.89    0.49
   4   9  -6    2.38    0.66
   4   9   6    2.26    0.51
  -4   9  -6    1.88    0.52
  -4  -9   6    1.48    0.61
   5   9   0   -0.56    0.89
  -5  -9   0   -0.50    4.47
   5   9   0    3.94    3.24
  -5   9   0    0.35    0.99
  -5  -9   0    0.04    1.05
  -5   9   0   -2.49    4.24
  -5   9   0   -0.69    0.80
   5   9   0   -0.80    0.85
  -5   9   0   -0.85    1.06
  -5   9   0   -0.37    1.10
   5   9  -1    2.52    0.87
  -5  -9  -1    3.12    1.12
   5   9  -1    2.04    0.92
  -5   9   1    2.34    0.87
  -5   9   1    0.71    1.00
   5   9  -1    7.11    4.57
  -5  -9  -1    8.18    4.73
  -5   9   1    4.98    4.88
  -5   9   1    1.83    0.92
  -5   9   1    1.41    1.07
   5   9   1   -0.05    3.29
  -5  -9   1   -2.39    4.66
   5   9   1    2.00    0.85
   5  -9  -1    2.63    4.42
  -5   9  -1    2.96    1.17
  -5   9  -1    1.01    1.01
  -5  -9   1    1.24    0.88
  -5  -9   1    2.19    1.02
  -5   9  -1    1.11    0.87
  -5   9  -1    1.57    1.21
  -5   9  -1    3.91    4.73
   5   9  -2    9.83    1.52
  -5  -9  -2    5.62    1.05
  -5   9   2    5.99    0.99
  -5   9   2    7.46    1.19
  -5   9   2    6.29    1.03
  -5   9  -2    8.00    1.21
  -5  -9   2    6.42    1.04
  -5   9  -2    5.26    1.00
  -5  -9   2    6.27    1.10
  -5   9  -2    6.48    1.02
  -5   9  -2    5.28    1.34
   5   9   2    5.59    0.91
  -5   9   3   -0.04    0.71
  -5   9   3   -0.06    0.66
   5   9  -3    0.06    0.77
  -5   9   3   -0.82    0.71
  -5  -9  -3    1.70    0.72
  -5  -9  -3    0.86    0.82
   5   9  -3    0.94    1.10
  -5   9  -3    1.02    0.80
  -5   9  -3    0.45    1.02
  -5  -9   3   -0.20    0.87
   5   9   3    1.03    0.71
  -5   9  -3    0.16    0.84
  -5  -9   3    0.97    0.89
  -5   9   4   -0.04    0.75
   5   9  -4    1.69    0.74
  -5  -9  -4    1.39    0.66
  -5   9   4    1.88    0.69
   5  -9   4    1.45    0.71
   5   9  -4    1.11    0.77
  -5  -9  -4    2.02    0.68
  -5   9  -4    3.54    0.76
  -5   9  -4    1.76    0.83
  -5   9  -4    0.15    0.69
  -5  -9   4    2.60    0.87
   5   9   4    0.98    0.64
   5  -9   5    1.32    0.43
   5   9  -5    3.96    0.74
  -5  -9  -5    1.74    0.52
   5   9  -5    2.70    0.68
  -5   9  -5    2.13    0.62
  -5   9  -5    2.14    0.55
   5   9   5    1.80    0.50
  -5  -9   5    1.54    0.73
  -5  -9  -6    0.96    0.32
   5   9   6   -0.03    0.32
  -5  -9   6   -0.20    0.45
  -5   9  -6   -0.29    0.32
  -6   9   0   29.12    2.24
   6   9   0   32.13    2.07
  -6  -9   0   32.16    2.16
  -6   9   0   28.59    1.88
  -6   9   0   31.36    2.24
  -6   9   0   32.71    2.23
   6   9  -1   -0.08    0.77
  -6   9   1   -0.84    0.72
  -6  -9  -1   -0.12    0.89
  -6   9   1    0.41    0.93
  -6   9   1   -1.48    0.86
  -6   9   1   -1.28    0.92
  -6   9  -1    0.25    0.71
  -6   9  -1   -0.49    0.97
  -6   9  -1   -1.46    0.86
  -6  -9   1   -0.68    0.84
   6   9   1   -0.89    0.76
  -6   9  -1   -0.99    1.03
  -6  -9   1   -0.64    0.82
   6   9  -2    1.36    0.81
  -6  -9  -2    0.91    0.75
  -6   9   2   -0.28    0.68
  -6   9   2   -0.80    0.71
  -6   9   2   -0.61    0.74
  -6   9  -2    0.58    1.03
  -6   9  -2   -0.13    0.64
  -6   9  -2   -0.12    0.84
  -6  -9   2    0.53    0.77
  -6   9  -2   -0.12    0.78
   6   9   2    0.45    0.67
  -6  -9   2   -1.19    0.73
  -6   9   3    0.97    0.70
  -6  -9  -3   -0.09    0.63
  -6  -9  -3    1.94    0.56
  -6   9   3    1.24    0.68
   6   9  -3   -0.17    0.72
  -6   9  -3    0.36    0.70
   6   9   3    0.53    0.57
  -6  -9   3    0.04    0.71
  -6   9  -3   -0.28    0.57
  -6   9  -3    1.34    0.88
   6  -9   4    0.42    0.67
  -6  -9  -4    0.38    0.45
   6   9  -4   -0.23    0.64
  -6  -9  -4    0.52    0.60
  -6   9  -4    0.96    0.60
  -6   9  -4    0.07    0.64
  -6  -9   4   -0.42    0.63
  -6   9  -4    0.09    0.45
   6   9   4   -0.31    0.43
   6   9  -5    0.51    0.45
   6  -9   5    0.65    0.46
  -6  -9  -5   -0.11    0.35
  -6  -9   5    1.15    0.54
  -6   9  -5   -0.09    0.33
   6   9   5    0.50    0.35
  -7  -9   0    0.31    0.64
  -7   9   0   -1.57    0.97
  -7   9   0   -0.90    0.84
  -7   9   0    0.70    0.71
   7   9   0   -0.49    0.61
  -7   9   1    2.48    0.71
  -7  -9  -1    2.60    0.69
  -7   9   1    3.36    0.78
  -7   9   1    2.37    0.73
   7   9  -1    2.35    0.69
  -7  -9   1    3.96    0.72
   7   9   1    2.69    0.66
  -7   9  -1    2.67    0.81
  -7   9  -1    2.87    0.81
  -7  -9   1    3.04    0.99
  -7   9  -1    2.58    0.81
  -7   9   2    1.94    0.58
   7   9  -2    1.21    0.60
  -7  -9  -2    0.57    0.53
  -7  -9   2   -0.08    0.60
  -7   9  -2    0.36    0.73
  -7  -9   2    0.19    0.56
  -7   9  -2   -0.11    0.62
  -7   9  -2    1.03    0.62
   7   9   2    0.43    0.54
  -7  -9  -3    0.57    0.42
   7   9  -3    1.22    0.54
  -7   9  -3    0.47    0.54
  -7  -9   3    0.20    0.73
   7   9   3    0.47    0.70
  -7   9  -3    0.27    0.49
   7   9  -4   -0.16    0.40
  -7  -9   4   -0.34    0.47
   7   9   4   -0.09    0.46
  -7   9  -4    1.13    0.39
   8   9   0   -0.86    0.39
  -8   9   0    0.29    0.47
  -8  -9   0    0.20    0.44
  -8   9   0    0.44    0.48
  -8   9   0    0.88    0.48
  -8   9   1    0.86    0.45
  -8  -9  -1    0.38    0.41
   8   9  -1   -0.54    0.42
  -8   9  -1   -0.52    0.50
   8   9   1    0.77    0.46
  -8  -9   1   -0.51    0.33
  -8   9  -1   -0.35    0.43
   0  10   0   12.88    1.34
   0 -10   0   18.68    3.58
   0  10   0   11.33    1.58
   0  10   0   11.83    1.57
   0  10   0   11.78    3.24
   0 -10   0   12.99    1.86
   0  10   0   13.02    1.76
   0  10  -1   -0.05    0.95
   0 -10   1   -0.26    0.95
   0  10   1    0.57    2.37
   0  10   1    0.19    0.86
   0  10  -1   -0.20    0.77
   0  10  -1    0.47    0.91
   0  10  -1   -0.63    0.88
   0 -10   1   -1.92    3.06
   0 -10  -1   -0.54    2.71
   0  10   1    0.44    0.87
   0  10  -1    0.47    2.76
   0  10   1   -1.21    0.94
   0  10   1    0.10    0.74
   0  10  -2   62.04    7.17
   0  10   2   65.44    6.28
   0  10   2   72.39    3.67
   0 -10   2   67.34    3.89
   0  10   2   75.39    6.67
   0  10  -2   73.72    3.62
   0  10   2   71.32    3.58
   0  10   2   70.93    3.74
   0  10  -2   73.78    3.77
   0  10   2   74.63    3.79
   0  10  -2   72.88    3.92
   0 -10  -2   69.36    7.12
   0 -10   3    6.06    4.48
   0  10  -3   -0.55    0.80
   0  10  -3    0.17    1.12
   0  10   3   -0.07    0.97
   0  10   3   -0.31    0.82
   0 -10   3    0.20    1.04
   0 -10  -3    4.65    4.54
   0  10   3    1.34    1.10
   0  10   3    0.85    0.89
   0  10   3   -0.67    3.32
   0  10   4   66.39    3.66
   0  10   4   68.46    3.58
   0  10   4   68.33    3.45
   0 -10   4   65.81    3.78
   0  10  -4   70.86    3.75
   0  10  -4   63.35    3.44
   0  10   4   69.00    3.52
   0  10  -5    0.70    0.70
   0  10   5    0.40    0.86
   0  10   5    0.29    0.69
   0  10  -5   -1.35    0.87
   0  10   5    0.17    0.68
   0 -10   5   -0.98    0.91
   0  10   6   49.28    2.50
   0 -10   6   53.96    2.71
   0  10   6   53.57    2.57
   0  10   6   50.03    2.56
   0  10  -6   44.36    2.56
   0  10  -6   49.59    2.55
   0  10   7   -0.20    0.36
  -1  10   0    0.22    0.71
  -1  10   0    0.24    0.83
  -1 -10   0    2.24    3.02
   1  10   0    0.12    0.88
   1  10   0   -0.75    0.71
   1 -10   0   -1.15    3.04
  -1 -10   0    0.40    1.15
  -1  10   0    1.02    2.66
  -1  10   0    0.47    0.91
   1  10   0   -0.31    0.99
   1  10   0    0.40    0.86
   1  10   0    1.09    3.00
  -1  10   0    0.59    0.90
  -1  10   1   35.28    2.34
  -1 -10  -1   36.16    6.01
  -1  10   1   35.16    2.14
   1  10  -1   35.57    5.93
   1  10  -1   33.03    2.07
  -1  10   1   34.85    2.29
  -1  10   1   30.27    4.85
  -1  10   1   33.63    2.37
   1  10  -1   34.43    2.46
   1  10  -1   32.35    2.42
   1 -10   1   46.89    6.29
   1  10   1   36.70    5.42
   1  10   1   34.32    2.11
  -1  10  -1   36.57    2.16
  -1  10  -1   35.68    2.46
  -1  10  -1   35.60    2.32
   1  10   1   31.29    5.28
   1  10   1   35.01    2.35
   1 -10  -1   45.37    5.63
  -1 -10   1   27.34    5.94
   1  10   1   31.90    2.26
   1  10   1   33.35    2.33
  -1 -10   1   34.24    2.40
  -1  10  -1   38.76    2.31
  -1  10  -1   30.36    5.48
   1  10  -2    5.26    0.87
  -1  10   2    2.94    0.88
  -1  10   2    3.92    0.90
   1  10  -2    2.99    1.11
  -1  10   2    5.81    1.15
  -1 -10  -2    6.89    3.22
   1 -10   2    6.46    3.53
   1  10  -2    2.82    4.38
  -1  10   2    5.69    2.63
  -1  10   2    4.60    1.03
   1  10   2    3.00    3.00
   1  10   2    3.13    1.03
  -1  10  -2    4.92    0.98
  -1  10  -2    3.93    1.16
   1  10   2    3.90    0.84
  -1  10  -2    9.51    3.32
  -1  10  -2    4.40    0.97
   1  10   2    6.45    1.06
   1 -10  -2    4.64    3.52
   1  10   2    3.16    0.90
  -1 -10   2    3.69    1.06
  -1  10  -2    4.65    1.08
  -1  10   3  114.10    5.42
   1  10  -3  107.35    5.36
  -1  10   3  115.48    5.52
   1  10  -3  117.63    5.72
   1 -10   3  108.62    9.11
  -1  10   3  114.44    5.42
  -1 -10  -3   97.59    9.91
  -1  10   3  112.04    5.62
  -1  10  -3  113.99    5.47
   1  10   3  118.23    5.51
  -1  10  -3  112.82    5.63
   1  10   3  120.93    5.53
  -1 -10   3  114.92    5.72
  -1  10  -3  101.78    9.39
   1  10   3  115.27    5.54
  -1  10  -3  117.05    5.49
   1 -10  -3  105.01    9.94
  -1 -10   3  116.82   10.48
   1  10   3  109.59    7.97
   1  10   3  116.41    5.40
  -1 -10  -4    2.17    1.18
   1  10  -4    2.06    0.85
  -1  10   4    0.51    0.80
   1  10  -4    1.69    1.25
  -1  10   4    0.81    0.92
   1 -10   4    1.83    1.12
  -1  10   4   -0.32    0.85
   1  10   4    0.00    0.73
   1  10   4    1.80    0.94
  -1 -10   4    2.46    1.12
   1  10   4    0.58    0.92
  -1  10  -4    2.61    1.11
   1  10   4    0.77    0.82
  -1  10  -4    1.67    0.88
   1  10  -5   58.97    3.36
   1 -10   5   62.05    3.29
  -1  10   5   55.48    3.07
  -1  10   5   63.24    3.31
  -1  10   5   60.50    3.06
  -1  10   5   58.11    3.18
   1  10   5   61.56    3.14
   1  10   5   64.51    3.13
  -1  10  -5   58.68    3.11
  -1 -10   5   61.29    3.32
   1  10   5   57.05    3.04
  -1  10  -5   62.22    3.13
  -1  10   6   -0.33    0.49
  -1  10   6    0.71    0.57
  -1  10   6   -0.67    0.53
   1  10  -6   -0.99    0.64
   1 -10   6    0.03    0.59
  -1 -10   6   -0.50    0.61
   1  10   6    0.36    0.57
   1  10   6    0.18    0.52
  -1  10  -6    1.11    0.54
   1  10   6   -0.08    0.46
  -2  10   0   33.93    2.13
  -2  10   0   33.48    2.33
   2  10   0   33.50    2.26
   2  10   0   25.33    3.96
  -2  10   0   35.23    2.27
   2 -10   0   43.18    6.46
  -2  10   0   29.28    5.04
  -2  10   0   32.82    2.35
   2  10   0   32.31    2.28
   2  10   0   36.56    2.29
  -2 -10   0   28.81    2.57
  -2 -10   0   26.66    5.15
   2  10   0   34.38    2.11
   2 -10   1   -1.23    3.37
  -2  10   1   -0.43    0.96
   2  10  -1   -0.03    0.94
  -2  10   1    0.00    0.91
  -2 -10  -1   -1.23    3.68
   2  10  -1    8.17    4.61
   2  10  -1    0.96    0.86
  -2  10   1    0.34    0.83
  -2  10   1   -0.77    0.89
  -2  10   1   -1.48    2.71
  -2  10  -1    0.54    0.87
   2  10   1   -0.55    0.83
  -2  10  -1    0.66    0.92
   2  10   1   -0.31    0.82
   2  10   1    0.27    0.91
  -2 -10   1    1.37    3.48
  -2  10  -1   -0.19    0.95
  -2 -10   1    0.88    0.95
   2 -10  -1    3.13    2.96
   2  10   1   -0.91    0.91
   2  10   1   -3.16    3.07
  -2  10  -1   -1.45    0.94
  -2  10  -1    4.18    3.16
  -2  10   2   60.01    6.10
   2  10  -2   60.54    3.48
  -2  10   2   62.45    3.26
   2 -10   2   66.74    7.21
   2  10  -2   57.03    3.55
  -2  10   2   65.77    3.55
  -2  10   2   65.80    3.38
  -2  10   2   61.67    3.30
   2 -10  -2   55.95    6.77
  -2  10  -2   64.36    3.33
  -2  10  -2   66.77    3.46
  -2 -10   2   47.91    7.98
   2  10   2   63.05    3.34
   2  10   2   62.53    3.25
  -2  10  -2   63.01    3.51
   2  10   2   67.40    3.43
   2  10   2   65.60    3.35
  -2 -10   2   59.24    3.44
  -2  10  -2   63.90    3.48
   2  10   2   60.18    6.17
  -2  10  -2   49.35    6.87
  -2  10   3    8.23    1.31
   2 -10   3    8.52    4.65
   2  10  -3    9.41    1.40
  -2  10   3   10.59    1.65
  -2 -10  -3    6.33    1.30
  -2 -10  -3   17.10    5.41
  -2  10   3   10.94    1.48
  -2  10   3   11.38    1.43
  -2  10  -3    4.98    4.22
  -2 -10   3    9.25    1.33
   2  10   3   10.50    1.48
  -2 -10   3   10.70    1.42
   2  10   3    8.21    1.25
  -2  10  -3   10.22    1.28
   2  10   3   10.55    1.70
  -2  10  -3   10.82    1.45
  -2  10  -3    9.60    1.24
  -2  10  -3   11.65    1.61
   2  10   3    2.34    3.22
   2  10   3    8.79    1.35
   2 -10  -3    8.73    6.64
  -2 -10  -4   58.93    3.48
  -2  10   4   67.85    3.29
   2  10   4   68.74    3.28
  -2 -10   4   53.51    4.20
  -2  10  -4   67.53    3.44
   2  10   4   67.61    3.54
  -2  10   5   -0.25    0.59
  -2  10   5    1.57    0.70
   2 -10   5    1.10    0.79
   2  10  -5   -0.13    0.92
  -2  10   5    1.97    0.68
  -2  10   5   -0.26    0.80
  -2 -10   5    0.99    0.84
   2  10   5    1.20    0.69
   2  10   5   -0.22    0.70
  -2  10  -5   -0.42    0.74
   2  10   5    1.01    0.62
  -2  10   6   16.37    1.14
   2  10  -6   17.21    1.35
  -2  10   6   17.30    1.25
   2 -10   6   17.01    1.21
  -2  10   6   17.80    1.26
  -2  10  -6   16.78    1.18
  -2 -10   6   16.83    1.34
   2  10   6   19.08    1.41
   2  10   6   17.71    1.41
   2  10   6   18.06    1.15
  -3  10   0   -2.08    3.04
   3  10   0    2.21    3.47
  -3  10   0    0.06    0.85
  -3 -10   0   -1.51    1.18
  -3 -10   0   -4.86    3.62
  -3  10   0    0.94    1.05
   3  10   0    0.43    0.84
  -3  10   0    0.61    1.04
   3 -10   0   -1.17    3.52
  -3  10   0    0.45    1.03
   3  10   0   -0.73    0.82
   3  10  -1   37.61    2.47
   3 -10   1   37.03    7.25
  -3  10   1   26.40    5.64
  -3 -10  -1   37.46    2.81
  -3  10   1   41.26    2.32
  -3  10   1   37.71    2.47
   3  10  -1   40.98    2.47
  -3 -10  -1   35.86    5.67
  -3  10   1   38.32    2.67
   3  10  -1   42.95    6.34
  -3  10   1   38.44    2.55
  -3 -10   1   40.64    5.97
  -3  10  -1   39.43    2.64
   3  10   1   38.13    2.42
  -3 -10   1   34.96    2.84
  -3  10  -1   39.49    2.48
   3  10   1   42.74    2.44
  -3  10  -1   40.73    2.64
  -3 -10   1   34.71    2.43
  -3  10  -1   40.28    2.41
   3  10   1   35.66    5.65
   3 -10  -1   42.11    7.18
  -3  10   2    1.35    0.92
   3  10  -2    0.13    0.88
  -3  10   2    0.04    1.02
   3  10  -2    0.45    0.92
  -3 -10  -2   -3.50    4.27
  -3  10   2   -0.26    0.75
  -3 -10  -2   -0.94    1.20
   3 -10   2    0.59    3.88
  -3  10   2    0.85    0.89
  -3 -10   2   -0.69    0.90
  -3 -10   2    1.12    5.23
   3  10   2   -0.13    0.79
   3  10   2   -3.00    3.14
  -3  10  -2   -0.81    1.03
  -3  10  -2   -5.85    4.09
  -3 -10   2    0.12    1.10
   3  10   2    0.32    0.77
  -3  10  -2   -1.17    1.13
  -3  10  -2    1.15    0.95
   3 -10  -2   -3.14    3.43
  -3  10  -2   -0.99    0.96
  -3  10   3   68.37    3.82
   3  10  -3   73.32    3.83
  -3  10   3   70.52    3.57
   3  10  -3   73.70    3.74
  -3 -10  -3   63.51    3.76
  -3  10   3   71.39    3.62
   3  10   3   74.60    3.62
  -3 -10   3   67.15    4.63
  -3 -10   3   72.42    3.79
  -3  10  -3   69.05    3.70
  -3  10  -3   72.47    3.67
   3  10   3   68.04    3.77
   3  10  -4   -0.85    0.97
  -3  10   4    0.36    0.72
  -3  10   4   -0.25    0.88
  -3  10   4   -0.36    0.66
  -3 -10  -4   -0.86    0.82
   3  10   4   -1.79    0.88
  -3  10  -4    0.78    0.99
  -3  10  -4    0.91    0.90
   3  10   4    2.04    0.78
   3  10   4    0.59    0.75
  -3  10  -4    1.04    0.76
  -3 -10   4   -0.76    0.91
  -3  10   5   42.34    2.32
   3  10  -5   40.83    2.56
  -3  10   5   35.99    2.09
  -3  10   5   39.81    2.21
   3 -10   5   39.85    2.23
   3  10   5   37.48    2.15
   3  10   5   40.59    2.12
   3  10   5   39.84    2.25
  -3 -10   5   43.19    2.36
  -3  10  -5   40.24    2.24
  -3  10   6    3.94    0.48
   3  10  -6    3.56    0.91
  -3  10   6    3.63    0.59
   3 -10   6    3.21    0.52
  -3 -10  -6    4.74    0.84
  -3 -10   6    2.61    0.77
   3  10   6    3.11    0.58
  -4 -10   0   20.15    5.27
   4  10   0   17.29    1.65
  -4 -10   0   15.27    1.98
  -4  10   0   16.44    1.92
   4 -10   0   15.66    5.14
   4  10   0   17.20    1.64
  -4  10   0   17.99    2.02
   4  10   0   10.57    3.85
  -4  10   0   15.54    1.65
   4 -10   1   -5.24    5.00
  -4  10   1   -0.32    0.86
  -4 -10  -1   10.36    4.57
   4  10  -1    1.11    0.84
  -4 -10  -1   -0.52    1.02
   4  10  -1   -0.42    0.83
  -4  10   1    1.14    5.51
  -4  10   1   -0.18    0.77
  -4  10   1    0.26    0.95
   4  10   1    0.39    0.85
  -4  10  -1    0.19    1.13
   4  10   1   -4.83    4.38
   4 -10  -1   -2.18    4.84
  -4  10  -1    0.08    1.07
  -4  10  -1   -0.65    0.89
  -4 -10   1    1.03    1.04
  -4 -10   1   10.45    6.19
   4  10   1    0.67    0.80
  -4 -10   1   -0.50    0.87
  -4  10  -1    1.85    4.44
  -4  10   2   37.99    2.31
   4  10  -2   40.30    2.78
  -4  10   2   36.20    2.17
  -4 -10  -2   32.90    2.41
  -4  10   2   36.88    3.01
  -4  10   2   33.29    2.44
  -4 -10   2   38.06    3.18
  -4  10  -2   35.94    2.54
   4  10   2   36.61    2.46
  -4  10  -2   35.48    2.38
  -4 -10   2   40.97    3.65
   4  10   2   36.44    2.24
  -4  10  -2   35.41    2.34
   4  10  -3    1.32    0.90
  -4  10   3    2.42    0.87
  -4 -10  -3    1.73    0.83
  -4  10   3    3.00    0.79
   4  10  -3    3.05    0.94
  -4  10   3    3.88    0.94
  -4  10   3    3.43    1.24
  -4  10  -3    2.41    0.85
  -4  10  -3    2.97    0.87
  -4  10  -3    1.65    1.00
   4  10   3    1.54    0.90
   4  10   3    2.45    0.76
  -4 -10   3    3.36    1.25
  -4 -10   3    2.90    0.95
  -4 -10  -4   53.48    2.75
  -4  10   4   55.18    2.79
  -4  10   4   51.48    2.78
   4  10  -4   51.57    2.78
  -4  10   4   47.82    2.66
   4  10  -4   53.40    2.71
   4  10   4   52.13    2.67
  -4  10  -4   52.00    2.66
  -4  10  -4   52.42    2.75
  -4  10  -4   48.31    2.72
  -4 -10   4   52.20    2.85
  -4 -10  -5    1.41    0.54
  -4  10   5    0.06    0.74
   4  10  -5    2.27    0.66
  -4  10   5    0.94    0.53
   4 -10   5    0.60    0.55
  -4  10  -5    0.40    0.55
  -4 -10   5    0.99    0.71
   4  10   5    1.05    0.50
   5  10   0   -0.21    0.81
   5  10   0   -1.16    0.90
  -5  10   0   -0.80    1.07
  -5  10   0   -0.10    0.78
  -5  10   0   -0.41    0.87
  -5 -10   0    0.02    0.93
  -5  10   0    0.22    0.93
  -5  10   1   19.44    1.60
  -5  10   1   19.16    1.81
   5  10  -1   17.32    1.60
  -5 -10  -1   18.82    1.72
   5  10  -1   17.64    1.67
  -5  10   1   17.79    1.74
  -5  10  -1   16.18    1.98
  -5  10  -1   19.35    1.98
   5  10   1   18.31    1.56
  -5 -10   1   16.07    1.61
  -5  10  -1   18.33    1.75
  -5 -10   1   16.37    1.76
   5  10  -2    9.50    1.22
  -5  10   2    6.84    1.09
  -5  10   2    5.36    0.95
   5  10  -2    7.93    1.07
  -5 -10  -2    7.36    1.07
  -5  10   2    7.87    0.89
  -5 -10  -2    5.61    0.95
  -5  10  -2    6.84    1.06
  -5 -10   2    6.72    0.98
  -5 -10   2    7.64    1.11
  -5  10  -2    6.26    1.18
  -5  10  -2    5.57    0.89
   5  10   2    8.50    1.27
  -5 -10  -3   30.49    1.83
  -5  10   3   30.98    1.87
  -5 -10  -3   36.05    2.07
  -5  10   3   28.04    1.78
   5  10  -3   34.67    2.02
  -5  10   3   31.85    1.87
   5  10  -3   32.13    1.90
  -5 -10   3   29.98    1.93
   5  10   3   31.47    1.86
  -5  10  -3   33.94    1.95
  -5  10  -3   32.33    2.10
  -5  10  -3   33.53    1.92
  -5 -10   3   33.18    2.05
  -5 -10  -4   -1.21    0.65
  -5  10   4   -0.72    0.64
  -5  10   4   -0.05    0.73
   5  10  -4    1.08    0.61
  -5 -10  -4    0.67    0.48
   5  10  -4    1.03    0.72
   5  10   4    0.35    0.48
  -5 -10   4    1.14    0.65
  -5  10  -4   -0.26    0.69
  -5  10  -4   -0.09    0.60
  -5  10  -4   -1.08    0.52
   5 -10   5   31.42    1.62
  -5 -10  -5   29.80    1.52
   5  10  -5   29.07    1.63
  -5 -10   5   31.04    1.69
   5  10   5   29.43    1.56
  -5  10  -5   29.36    1.52
  -6  10   0   39.83    2.21
  -6 -10   0   43.99    2.39
  -6  10   0   41.76    2.45
  -6  10   0   41.28    2.44
   6  10   0   41.56    2.26
  -6  10   0   37.97    2.33
   6  10  -1    1.49    0.71
  -6  10   1    4.38    0.85
  -6  10   1    2.53    0.64
  -6 -10  -1    1.47    0.75
  -6  10   1    1.08    0.80
  -6 -10   1    2.60    0.81
  -6  10  -1    3.08    0.96
   6  10   1    2.55    0.70
  -6  10  -1    2.80    0.85
  -6 -10   1    0.86    0.80
  -6  10  -1    2.12    0.62
  -6  10   2   20.74    1.37
   6  10  -2   18.96    1.44
  -6 -10  -2   19.21    1.41
  -6  10   2   16.95    1.95
  -6  10   2   16.55    1.44
  -6  10  -2   16.92    1.42
  -6 -10   2   19.79    1.42
  -6  10  -2   18.75    1.63
   6  10   2   19.61    1.33
  -6  10  -2   19.27    1.25
  -6 -10   2   22.42    1.37
  -6 -10  -3    6.46    0.82
   6  10  -3    3.67    0.71
  -6  10   3    7.85    0.99
  -6  10  -3    6.20    1.02
  -6  10  -3    4.34    0.80
  -6  10  -3    4.55    0.73
   6  10   3    4.76    0.67
  -6 -10   3    5.21    0.76
   6  10  -4   29.89    1.53
   6  10   4   30.38    1.51
  -6 -10   4   31.06    1.67
  -6  10  -4   29.67    1.69
  -6  10  -4   27.47    1.46
  -7  10   0   -0.53    0.55
  -7 -10   0   -0.50    0.48
   7  10   0   -0.33    0.48
  -7  10   0    0.09    0.58
  -7 -10  -1   20.22    1.27
   7  10  -1   19.22    1.27
  -7  10   1   20.80    1.29
  -7  10   1   22.54    1.56
  -7  10  -1   20.26    1.31
   7  10   1   20.22    1.24
  -7 -10   1   23.29    1.37
  -7  10  -1   17.65    1.37
   7  10  -2    0.67    0.48
  -7  10   2    1.21    0.60
  -7 -10  -2    1.54    0.46
   7  10   2    1.78    0.43
  -7  10  -2    0.70    0.45
  -7  10  -2    0.71    0.53
   0 -11   0    0.01    1.08
   0  11   0    0.50    1.06
   0  11   0   -1.90    1.09
   0  11   0    0.37    0.72
   0  11   0   -1.05    3.59
   0 -11   0    0.20    3.59
   0  11  -1   -3.92    3.94
   0  11   1    3.16    3.33
   0  11   1    0.89    0.99
   0  11  -1    1.20    0.92
   0  11  -1   -0.39    0.76
   0  11   1   -0.03    0.81
   0  11  -1   -0.46    1.00
   0 -11   1    2.24    3.95
   0  11   1    0.64    1.03
   0 -11  -1   -0.89    3.94
   0 -11   1   -0.23    1.02
   0  11  -2    1.97    6.88
   0  11  -2   -0.28    1.11
   0 -11   2    8.65    4.86
   0 -11   2    0.54    1.11
   0  11   2    1.03    1.03
   0  11   2   -0.24    0.92
   0  11   2    0.11    0.91
   0  11   2   -0.08    1.04
   0  11  -2    0.04    0.74
   0 -11  -2   -2.41    4.43
   0  11  -3    3.15    0.83
   0 -11   3    2.34    1.42
   0  11   3    2.69    1.21
   0  11   3    3.76    1.10
   0  11   3    2.13    0.81
   0  11   4   -0.47    0.61
   0  11   4   -0.44    0.91
   0 -11   4    0.45    0.98
   0  11   4    0.48    0.73
   0  11  -4    0.04    0.96
   0  11   4    1.59    0.85
   0  11  -5    6.85    1.12
   0 -11   5    8.02    1.30
   0  11   5    6.86    0.93
   0  11   5    8.41    1.02
   0 -11   6    0.04    0.47
   0  11   6   -0.94    0.56
   0  11   6    0.68    0.45
   0  11   6   -0.87    0.45
  -1  11   0   -0.49    1.00
  -1  11   0    1.36    0.99
  -1  11   0    1.17    0.87
  -1  11   0    0.15    0.81
   1  11   0    4.46    4.47
  -1 -11   0   -2.63    4.41
   1 -11   0   -2.32    1.08
   1  11   0   -0.55    0.85
  -1  11   0   -4.08    3.08
   1  11   0   -0.13    1.03
   1  11   0    0.08    0.66
   1  11  -1    1.51    1.12
   1  11  -1    1.69    0.75
   1 -11   1    1.74    1.08
   1  11  -1    0.72    1.17
  -1  11   1    1.77    0.86
  -1  11   1    2.40    0.94
  -1  11   1    3.17    1.05
  -1 -11  -1    3.60    4.14
  -1  11   1   -1.46    3.26
   1 -11   1   -2.41    4.45
  -1  11   1    0.79    0.96
  -1  11  -1    1.45    3.81
  -1  11  -1    2.40    0.98
  -1  11  -1    1.98    0.96
  -1  11  -1    0.02    0.83
   1  11   1    2.48    0.99
   1 -11  -1   -6.23    3.94
   1  11   1    0.51    0.82
  -1 -11   1    2.36    4.59
   1  11   1    0.74    0.84
  -1 -11   1    0.62    0.98
  -1  11  -1    2.20    1.06
   1  11   1    3.64    4.59
   1  11   1    1.74    0.76
   1  11  -2    6.80    0.87
   1 -11   2    4.23    8.37
   1 -11   2    6.91    1.34
  -1  11   2    4.66    0.83
  -1  11   2    4.69    1.14
  -1  11   2    3.41    1.05
   1  11  -2    4.00    1.18
  -1  11   2    2.44    3.90
  -1 -11  -2    3.35    6.32
  -1  11  -2    5.89    5.99
   1  11   2    4.91    0.96
  -1 -11   2    4.62    1.19
  -1  11  -2    5.39    0.91
  -1  11  -2    4.35    1.00
   1  11   2    5.40    1.10
   1  11   2    5.21    0.89
  -1  11  -2    7.61    1.13
   1  11   2    4.13    0.93
  -1  11  -2    5.43    1.18
   1  11  -3    4.10    1.05
  -1 -11  -3    4.24    1.12
   1  11   3    7.48    1.15
  -1  11  -3    6.38    1.09
  -1  11  -3    4.77    1.02
  -1 -11   3    4.52    1.70
   1  11   3    4.49    0.85
   1  11  -4   -0.50    0.99
  -1  11   4    2.01    0.72
  -1  11   4    0.74    0.79
  -1  11   4    1.33    0.82
   1 -11   4    1.71    0.96
  -1  11   4    1.60    0.71
  -1  11  -4    0.51    0.85
  -1  11  -4    1.49    0.75
   1  11   4    0.97    0.64
  -1 -11   4    0.53    1.00
   1  11   4    2.28    0.83
   1  11   4    1.83    0.73
  -1  11   5    8.13    1.22
   1 -11   5    4.84    0.84
  -1  11   5    3.82    0.62
   1  11  -5    5.27    0.84
  -1  11   5    5.93    0.84
  -1  11  -5    5.13    0.70
   1  11   5    5.84    0.97
  -1 -11   5    6.00    0.90
   1  11   5    6.24    0.87
  -1  11  -5    6.30    0.83
   1  11   5    3.90    0.70
   1  11  -6    6.31    0.85
   1 -11   6    5.24    0.73
  -1  11   6    6.22    0.78
  -1  11   6    7.14    0.63
  -1 -11   6    6.76    0.72
   1  11   6    6.16    0.73
   1  11   6    5.82    0.74
   1  11   6    6.14    0.62
  -2  11   0    6.07    1.14
  -2  11   0   10.34    1.66
   2  11   0    9.94    1.33
  -2  11   0    5.99    3.61
  -2  11   0    8.13    1.08
  -2 -11   0    9.68    5.25
   2  11   0    7.77    1.18
   2 -11   0    6.22    4.48
   2  11   0    5.52    1.12
  -2  11   0    5.52    1.10
  -2  11   1    0.42    0.93
  -2  11   1    1.73    0.84
   2 -11   1   -2.78    4.55
  -2  11   1    1.03    0.92
  -2  11   1    6.11    3.59
   2  11  -1    1.40    1.23
  -2 -11  -1    6.38    5.04
  -2  11   1    0.98    1.02
   2  11  -1    0.84    1.13
  -2 -11   1    0.83    0.94
  -2  11  -1    1.45    0.86
  -2  11  -1    2.21    1.00
   2  11   1    1.42    0.95
   2  11   1    2.35    0.83
   2 -11  -1   -1.42    4.44
  -2  11  -1    1.18    1.00
  -2  11  -1    0.87    0.97
  -2  11  -1   -2.46    4.22
   2  11   1    1.90    0.91
   2  11   1    2.21    0.87
  -2  11   2    1.72    0.80
  -2  11   2    1.44    0.95
  -2  11   2    1.12    0.81
  -2 -11  -2    0.70    1.11
  -2  11   2    2.11    1.09
   2  11  -2    0.17    1.05
   2  11   2    1.77    1.05
   2  11   2    2.23    0.89
   2  11   2    2.84    0.94
  -2  11  -2    1.73    0.88
  -2  11  -2    0.27    0.82
   2  11   2    2.66    1.12
  -2 -11   2    1.59    1.09
   2 -11   3   29.06    2.32
  -2  11   3   29.54    1.91
  -2  11   3   27.80    2.00
  -2  11   3   27.72    2.26
  -2 -11  -3   26.04    2.12
   2  11  -3   29.04    2.27
   2  11   3   29.89    1.82
  -2  11  -3   30.82    2.10
  -2 -11   3   25.95    2.08
   2  11   3   29.78    1.90
  -2  11  -3   30.45    2.03
  -2  11  -3   27.35    1.91
  -2 -11   3   24.89    2.15
  -2  11  -3   28.78    1.95
   2  11   3   28.78    2.03
  -2  11   4    1.30    0.70
  -2  11   4    2.09    0.89
   2  11  -4    1.67    0.96
  -2 -11  -4    0.45    0.89
  -2  11   4    1.93    0.74
   2 -11   4    0.59    0.84
  -2 -11   4    0.92    0.87
  -2  11  -4    1.55    0.79
   2  11   4    1.63    0.69
  -2  11  -4    1.25    0.71
   2  11   4    1.19    0.74
   2  11   4    0.52    0.60
  -2  11   5   -0.44    0.50
   2 -11   5    0.09    0.64
  -2  11   5    1.72    0.62
   2  11  -5   -0.11    0.70
  -2  11   5   -0.12    0.44
  -2 -11   5    1.16    0.67
   2  11   5    1.19    0.59
   2  11   5    1.14    0.63
   2  11   5    0.59    0.53
  -2  11  -5    1.28    0.57
   2  11  -6   -0.52    0.45
  -2  11   6    0.08    0.31
  -2  11  -6    0.30    0.36
  -3  11   0   -0.78    0.97
  -3 -11   0   -2.04    1.11
  -3  11   0    0.32    1.00
   3  11   0    0.25    0.98
  -3  11   0   -0.84    0.85
  -3  11   0   -0.18    0.91
  -3 -11  -1    3.38    1.16
  -3  11   1    6.37    1.14
   3  11  -1    4.13    0.92
  -3  11   1    1.63    0.98
  -3  11   1    4.55    0.93
  -3  11   1    3.92    0.97
   3  11  -1    6.01    1.45
  -3  11  -1    5.10    1.15
  -3 -11   1    1.68    1.21
  -3 -11   1    3.12    0.97
  -3  11  -1    4.37    1.33
  -3  11  -1    3.67    0.95
  -3  11  -1    3.86    0.91
   3  11  -2   18.40    1.59
  -3  11   2   16.37    1.71
  -3  11   2   15.21    1.56
  -3 -11  -2   14.86    1.76
   3  11  -2   17.19    1.77
  -3  11   2   20.16    1.55
  -3  11   2   18.25    1.84
  -3  11  -2   18.55    1.65
  -3 -11   2   18.96    1.86
  -3 -11   2   16.34    1.85
  -3  11  -2   16.31    1.79
   3  11   2   19.85    1.62
  -3  11  -2   15.97    1.64
   3  11   2   20.05    1.80
  -3 -11  -3    2.04    0.89
  -3  11   3    3.38    0.86
   3  11  -3    3.94    0.94
  -3  11   3    4.25    1.24
  -3  11   3    5.03    0.82
  -3 -11   3    2.32    0.89
  -3  11  -3    3.23    0.75
  -3 -11   3    4.21    0.94
   3  11   3    2.91    0.81
  -3  11  -3    3.28    0.81
  -3  11  -3    1.75    0.91
   3  11   3    2.36    0.72
  -3  11   4   -1.08    0.61
   3  11  -4   -0.02    0.76
  -3  11   4   -0.48    0.55
  -3  11   4    0.75    0.71
   3 -11   4    1.11    0.79
  -3 -11   4    0.34    0.72
  -3  11  -4   -0.74    0.71
   3  11   4    1.52    0.57
   3  11   4    0.39    0.64
  -3  11   5    3.28    0.63
   3 -11   5    2.79    0.59
   3  11  -5    3.99    0.68
  -3 -11  -5    3.39    0.52
  -3  11   5    3.44    0.62
   3  11   5    3.60    0.91
  -3  11  -5    2.62    0.53
  -3 -11   5    3.65    0.71
   3  11   5    4.79    0.71
  -4  11   0   40.29    2.53
  -4  11   0   39.23    2.48
  -4 -11   0   36.49    2.52
  -4  11   0   40.29    2.31
   4  11   0   39.70    2.27
   4  11   0   38.62    2.32
  -4  11   1    6.83    1.08
   4  11  -1   10.55    1.27
   4  11  -1    7.80    1.00
  -4  11   1    7.72    1.10
  -4 -11  -1    5.96    1.09
  -4  11   1   11.42    1.43
   4  11   1    8.59    1.33
  -4 -11   1    9.45    1.59
  -4  11  -1    9.97    1.41
  -4  11  -1   11.31    1.63
  -4  11  -1    8.86    1.49
  -4 -11   1   10.52    1.60
   4  11   1    9.21    1.29
  -4  11   2   -0.63    0.66
   4  11  -2   -0.32    0.72
  -4  11   2   -0.60    0.79
  -4 -11  -2    1.05    0.77
  -4  11   2    0.57    0.71
   4  11  -2    0.45    0.74
  -4  11  -2    0.14    0.85
  -4  11  -2    0.06    0.83
  -4  11  -2   -0.09    0.74
   4  11   2   -0.40    0.64
   4  11   2    1.98    0.80
  -4 -11   2    0.67    0.75
  -4 -11   2   -0.95    0.82
  -4  11   3    2.81    0.68
  -4  11   3    2.24    0.75
   4  11  -3    2.43    0.75
  -4 -11  -3    2.35    0.67
  -4  11   3    3.89    0.85
   4  11  -3    1.88    0.82
  -4  11  -3    1.74    0.71
  -4  11  -3    1.98    0.75
  -4 -11   3    2.10    0.84
   4  11   3    2.12    1.13
  -4  11  -3    1.06    0.75
   4  11   3    1.10    0.60
  -4  11   4    0.09    0.46
  -4  11   4    1.46    0.72
  -4 -11  -4   -0.75    0.47
   4 -11   4    0.80    0.62
  -4  11   4   -1.11    0.77
   4  11  -4    0.17    0.62
   4  11   4    0.56    0.47
  -4  11  -4   -0.42    0.55
  -4 -11   4   -0.07    0.63
  -4  11   5   -0.07    0.41
  -4 -11  -5    0.20    0.34
   4 -11   5   -0.09    0.41
   4  11   5   -0.12    0.34
  -4  11  -5    0.62    0.37
  -4 -11   5    0.84    0.51
  -5 -11   0    0.40    0.77
  -5  11   0    0.46    0.81
  -5  11   0   -0.21    0.78
   5  11   0    1.50    0.95
  -5  11   0    0.57    0.68
   5  11   0   -0.11    0.67
   5  11  -1    0.81    0.67
  -5  11   1   -0.33    0.80
  -5  11   1    1.02    0.72
   5  11  -1   -0.58    0.69
  -5  11   1    1.10    0.61
  -5 -11  -1   -0.07    0.68
  -5 -11   1    0.96    0.83
   5  11   1    0.49    0.60
  -5  11  -1    1.27    0.90
  -5  11  -1    1.18    0.81
  -5  11  -1    0.07    0.64
  -5 -11  -2   -0.56    0.61
  -5  11   2   -0.31    0.55
   5  11  -2    0.06    0.62
  -5  11   2   -0.72    0.59
   5  11  -2    0.28    0.59
  -5  11   2    0.54    0.62
  -5 -11   2    0.47    0.62
  -5  11  -2   -0.75    0.64
  -5 -11   2    0.53    0.65
  -5  11  -2   -0.25    0.62
   5  11   2    0.37    0.58
  -5  11  -2   -0.84    0.69
  -5  11   3    3.66    0.68
  -5  11   3    3.26    0.59
   5  11  -3    2.63    0.62
  -5 -11  -3    2.32    0.49
   5  11  -3    2.07    0.61
  -5 -11   3    4.05    0.70
  -5  11  -3    3.47    0.76
   5  11   3    3.20    0.55
  -5  11  -3    2.75    0.53
  -5  11  -3    1.64    0.65
   5 -11   4   -0.10    0.45
  -5 -11  -4   -0.54    0.37
  -5 -11   4    0.00    0.53
  -5  11  -4   -0.03    0.38
   5  11   4   -0.16    0.36
   6  11   0    0.41    0.51
  -6  11   0   -0.40    0.47
  -6 -11   0    1.69    0.63
  -6  11   0    0.32    0.61
  -6  11   0    0.16    0.61
  -6  11   1    2.78    0.64
  -6  11   1    2.45    0.62
  -6 -11  -1    2.80    0.62
   6  11  -1    2.78    0.58
  -6  11   1    1.74    0.60
  -6  11  -1    2.34    0.68
   6  11   1    4.96    0.75
  -6  11  -1    3.15    0.64
  -6  11  -1    3.72    0.51
  -6 -11   1    3.57    0.71
  -6  11   2    0.10    0.50
  -6  11   2   -0.21    0.51
  -6 -11  -2    0.67    0.45
   6  11  -2    0.89    0.50
   6  11   2    0.20    0.77
  -6  11  -2    0.25    0.47
  -6  11  -2   -0.26    0.90
  -6 -11   2    0.25    0.49
   0  12   0  101.48    5.59
   0  12   0  101.82    4.88
   0  12   0  106.51    4.97
   0  12   1    0.03    0.78
   0  12   1    0.15    0.66
   0 -12   1   -1.84    0.96
   0  12  -1    1.53    0.67
   0  12  -1    1.20    0.88
   0  12   1    0.88    0.81
   0  12  -1    0.19    1.04
   0  12   2   57.25    3.18
   0  12  -2   57.72    2.89
   0 -12   2   52.79    3.17
   0  12  -2   58.51    3.25
   0  12   2   58.58    2.93
   0  12   2   56.72    3.04
   0  12  -3   -0.14    0.58
   0  12   3    0.04    0.62
   0  12  -3   -0.33    0.91
   0  12   3   -0.04    0.80
   0  12   3   -0.25    0.71
   0 -12   3   -0.78    0.82
   0  12   4   15.59    1.33
   0  12   4   13.38    1.30
   0 -12   4   16.15    1.49
   0  12   4   14.32    1.10
   0  12  -4   13.93    1.41
   0  12   4   16.11    1.31
   0  12  -4   17.42    1.43
   0  12   5    0.48    0.42
   0  12  -5   -0.44    0.44
   0 -12   5    0.09    0.56
   0  12   5    0.25    0.47
   1  12   0    1.02    0.92
   1  12   0    0.39    0.62
  -1  12   0    0.63    0.87
  -1  12   0    0.35    0.92
  -1  12   0    0.79    0.73
   1  12   0    0.27    0.79
   1 -12   1   64.89    3.83
  -1  12   1   73.88    3.64
  -1  12   1   70.30    3.47
   1  12  -1   71.08    3.76
  -1  12   1   70.47    3.71
   1  12  -1   66.28    3.42
   1  12   1   69.50    3.43
  -1 -12   1   63.36    3.66
   1  12   1   70.61    3.58
   1  12   1   73.84    3.63
  -1  12  -1   70.15    3.50
  -1  12  -1   71.71    3.57
  -1  12  -1   72.76    3.89
   1  12  -2   -0.73    1.01
  -1  12   2    0.17    0.90
  -1  12   2    0.83    0.72
  -1  12   2    1.16    0.86
   1 -12   2   -0.16    0.95
  -1  12  -2   -0.48    0.91
   1  12   2    0.19    0.67
  -1  12  -2   -0.88    0.72
   1  12   2    1.31    0.81
  -1  12  -2   -0.39    1.01
   1  12   2    0.56    0.67
   1  12   2    0.12    0.81
  -1 -12   2   -1.03    0.87
  -1  12   3   19.33    1.40
  -1  12   3   18.02    1.71
  -1 -12  -3   15.25    1.63
   1 -12   3   17.07    1.72
  -1  12   3   19.03    1.54
   1  12  -3   20.25    1.79
   1  12   3   19.69    1.52
   1  12   3   20.24    1.41
  -1  12  -3   15.31    1.49
   1  12   3   22.59    1.57
  -1  12  -3   19.75    1.55
   1  12   3   17.91    1.39
  -1 -12   3   18.63    1.71
  -1 -12   3   17.51    1.70
   1  12  -4    0.20    0.72
  -1  12   4    1.49    0.61
  -1  12   4    0.78    0.52
  -1  12   4    2.62    0.68
   1 -12   4    0.94    0.70
  -1  12  -4    0.09    0.55
  -1  12  -4    1.90    0.61
   1  12   4    1.16    0.59
  -1 -12   4    0.28    0.71
   1  12   4   -0.37    0.62
   1  12   4    0.56    0.72
   1  12  -5   15.07    1.09
   1 -12   5   16.44    1.12
  -1  12   5   16.20    1.07
  -1  12   5   16.23    0.96
   1  12   5   15.51    1.01
  -1  12  -5   12.88    1.38
  -1 -12   5   16.34    1.13
   1  12   5   15.77    0.95
   1  12   5   14.27    1.04
  -2  12   0   95.99    4.56
  -2  12   0   98.19    4.63
  -2  12   0   97.83    4.50
   2  12   0   97.27    4.56
  -2  12   0   93.37    4.58
   2 -12   0   80.11    5.25
   2  12   0   86.09    4.89
  -2 -12   0   87.94    4.82
  -2  12   1    0.68    0.92
   2 -12   1   -1.81    0.96
  -2  12   1    0.20    0.69
  -2  12   1    0.46    0.90
   2  12  -1    0.11    0.92
  -2 -12  -1    0.46    0.97
  -2  12   1    0.40    0.73
  -2  12  -1   -0.17    0.70
  -2  12  -1   -0.37    0.81
  -2  12  -1    0.08    0.81
   2  12   1    0.50    0.70
  -2 -12   1   -1.17    1.00
  -2  12  -1   -1.25    0.79
  -2 -12   1   -0.63    1.17
   2  12   1   -0.42    0.70
  -2  12   2   33.93    2.09
  -2 -12  -2   26.04    2.19
   2  12  -2   32.84    2.20
   2 -12   2   31.58    2.37
  -2  12   2   33.28    1.95
  -2  12   2   34.80    2.19
  -2  12  -2   35.55    2.07
   2  12   2   32.59    1.96
  -2  12  -2   33.38    2.05
  -2  12  -2   33.84    2.04
   2  12   2   31.91    1.87
   2  12   2   31.35    2.07
  -2 -12   2   35.01    2.27
  -2  12  -2   33.81    2.04
  -2 -12   2   29.41    2.11
  -2 -12  -3    2.29    0.75
  -2  12   3    0.63    0.83
  -2  12   3    2.74    0.69
   2  12  -3    1.77    0.85
   2 -12   3    0.89    0.87
  -2  12   3   -0.04    0.73
   2  12   3    1.17    0.72
  -2 -12   3    0.88    0.92
   2  12   3    1.36    0.63
  -2  12  -3    1.82    0.87
  -2 -12   3    2.28    0.82
   2  12   3    3.08    0.86
  -2  12  -3    2.58    0.70
  -2  12   4   24.30    1.49
   2  12  -4   24.90    1.66
  -2  12   4   24.21    1.45
  -2  12   4   25.79    1.61
   2 -12   4   26.25    1.89
  -2  12  -4   22.88    1.45
   2  12   4   21.75    1.56
  -2 -12   4   25.68    1.64
   2  12   4   23.59    1.55
   2  12   4   24.62    1.45
  -2  12   5    0.62    0.34
   2 -12   5    0.58    0.48
   2  12  -5    0.38    0.48
  -2  12   5    0.83    0.46
   2  12   5   -0.30    0.60
  -2  12  -5    0.62    0.38
  -2 -12   5    0.49    0.49
  -3  12   0    1.46    0.85
  -3  12   0   -0.19    0.79
   3  12   0   -0.05    0.68
   3  12   0   -1.08    0.69
   3 -12   0    0.72    1.13
  -3  12   0   -0.57    0.84
  -3  12   0    0.47    0.76
  -3 -12   0   -0.37    0.86
  -3  12   1   45.90    2.49
   3  12  -1   41.84    2.45
   3  12  -1   47.11    2.54
  -3  12   1   43.29    2.53
  -3 -12  -1   41.35    2.67
  -3  12   1   47.74    2.63
  -3 -12   1   43.64    2.73
  -3  12  -1   50.99    2.64
  -3  12  -1   45.06    2.51
   3  12   1   45.02    2.48
  -3  12  -1   45.92    2.60
   3  12   1   48.58    2.46
  -3  12   2    1.41    0.68
   3 -12   2   -0.86    0.90
  -3  12   2    1.31    0.82
  -3 -12  -2    0.27    0.76
   3  12  -2   -0.67    0.72
  -3  12   2    0.37    0.71
  -3  12  -2    1.34    0.76
  -3  12  -2    1.01    0.67
   3  12   2    0.48    0.61
  -3  12  -2   -0.14    0.73
   3  12   2    0.76    0.68
  -3 -12   2    0.15    0.74
  -3 -12   2   -0.36    0.72
  -3  12   3   24.39    1.51
  -3  12   3   24.68    1.62
   3  12  -3   25.78    1.66
   3 -12   3   24.56    1.76
  -3  12   3   23.09    1.52
  -3 -12  -3   22.35    1.57
   3  12   3   27.76    1.47
  -3  12  -3   21.18    1.75
  -3 -12   3   23.89    1.73
  -3  12  -3   22.13    1.56
   3  12   3   24.37    1.53
  -3  12   4    0.81    0.56
  -3  12   4    0.69    0.72
  -3  12   4   -0.35    0.49
   3  12   4   -0.18    0.66
  -3 -12   4    1.12    0.65
   3  12   4    0.46    0.43
  -4 -12   0   30.30    2.02
  -4  12   0   32.19    2.01
  -4  12   0   32.76    2.03
   4  12   0   31.57    1.83
   4  12   0   32.18    1.86
  -4  12   0   33.02    1.91
  -4  12   1    0.07    0.71
  -4  12   1   -0.18    0.53
  -4 -12  -1   -0.31    0.67
   4  12  -1    0.43    0.61
   4  12  -1   -0.04    0.60
  -4  12   1   -0.10    0.63
  -4 -12   1    0.56    0.71
   4  12   1    1.07    0.66
  -4  12  -1    0.77    0.74
  -4  12  -1    0.43    0.71
  -4  12  -1    0.36    0.63
   4  12   1   -1.18    0.55
  -4  12   2   37.84    2.15
  -4  12   2   40.76    2.12
  -4 -12  -2   40.59    2.18
   4  12  -2   36.74    2.21
  -4  12  -2   40.69    2.13
  -4 -12   2   36.78    2.17
   4  12   2   40.99    2.26
   4  12   2   42.21    2.10
  -4  12  -2   43.04    2.39
  -4 -12   2   40.22    2.20
  -4  12  -2   39.51    2.12
   4  12  -3    2.12    0.56
  -4 -12  -3    0.96    0.54
  -4 -12  -3    0.97    0.50
  -4  12   3    1.73    0.74
  -4  12   3   -0.50    0.61
   4  12   3    1.02    0.61
  -4 -12   3    1.20    0.59
  -4  12  -3    1.48    0.64
  -4  12  -3    1.39    0.51
  -5  12   0    0.40    0.57
  -5 -12   0   -0.17    0.54
  -5  12   0   -0.37    0.61
  -5  12   1   29.95    2.00
  -5  12   1   31.79    1.72
   5  12  -1   30.52    1.62
  -5  12   1   29.10    1.63
  -5 -12  -1   32.93    1.71
  -5  12  -1   30.09    1.72
  -5  12  -1   30.61    1.76
  -5  12  -1   29.04    1.76
   5  12   1   27.17    1.95
  -5  12   2    0.38    0.46
   5  12  -2    1.68    0.80
  -5  12   2   -0.10    0.43
  -5 -12  -2    0.72    0.44
  -5 -12   2    0.30    0.54
   5  12   2    1.51    0.50
  -5  12  -2    1.65    0.54
  -5  12  -2    1.10    0.46
  -5  12  -2    0.74    0.44
   0  13   0    0.31    0.56
   0  13   0    0.87    0.74
   0  13   0    0.44    0.82
   0  13   1    2.27    0.60
   0  13   1    1.87    0.84
   0  13  -1    1.64    0.64
   0  13  -1    1.98    0.82
   0  13   1    2.81    0.70
   0  13  -2    0.06    0.68
   0  13   2    0.87    0.53
   0  13   2    0.87    0.64
   0 -13   2    1.07    0.79
   0  13   2   -0.27    0.72
   0 -13   3    2.94    0.95
   0 -13  -3    4.61    1.00
   0  13   3    2.55    0.58
   0  13  -3    2.81    0.68
   0  13   3    1.97    0.65
   0  13   3    2.99    0.59
   0 -13   3    4.91    0.88
   0 -13   4    0.67    0.50
   0  13  -4    0.15    0.46
   0  13   4    0.69    0.46
   0  13   4    0.50    0.36
  -1  13   0   -0.34    0.58
   1  13   0    0.22    0.71
   1  13   0   -0.81    0.79
  -1  13   0   -0.30    0.75
  -1  13   0    1.08    0.80
   1  13  -1    1.25    0.80
   1 -13   1    0.01    1.82
  -1  13   1    0.58    0.71
  -1  13   1   -0.45    0.78
  -1  13   1    0.63    0.59
  -1 -13  -1   -1.15    0.91
  -1  13  -1    0.25    0.59
  -1  13  -1    0.40    0.73
   1  13   1    1.03    0.65
   1  13   1    1.11    0.74
   1  13   1    0.15    0.64
  -1  13  -1    1.02    0.87
   1 -13   2    1.74    0.84
  -1  13   2    1.16    0.64
  -1  13   2    1.19    0.75
  -1  13   2    1.45    0.57
  -1 -13  -2    1.72    0.77
   1  13  -2    2.31    0.80
  -1 -13   2    2.80    0.86
  -1 -13   2    1.96    0.81
  -1  13  -2    1.68    0.57
   1  13   2    1.44    0.72
  -1  13  -2    1.17    0.67
   1  13   2    1.07    1.00
   1 -13   3    1.12    1.02
  -1  13   3   -0.16    0.63
   1  13  -3   -1.05    0.67
  -1  13   3   -0.22    0.46
  -1  13   3   -0.57    0.54
  -1 -13  -3    1.65    0.64
   1 -13  -3    2.38    0.81
  -1 -13   3   -0.70    0.62
  -1  13  -3   -0.61    0.55
   1  13   3    0.52    0.55
  -1 -13   3    0.39    0.79
  -1  13  -3    1.11    0.49
   1  13   3    0.01    0.55
   1 -13   4   -0.30    0.55
  -1  13   4    0.22    0.48
  -1  13   4    0.04    0.37
   1  13  -4    0.54    0.54
   1  13   4    0.37    0.48
  -2  13   0   -1.43    0.70
  -2 -13   0    1.08    0.95
  -2  13   0    0.26    0.59
  -2  13   0   -1.02    0.70
   2  13   0    1.14    0.72
   2 -13   1    1.60    1.56
  -2  13   1    0.81    0.71
  -2  13   1    0.46    0.69
  -2  13   1    0.43    0.55
  -2 -13  -1    0.63    0.76
   2  13  -1    0.38    0.68
  -2  13  -1   -0.91    0.65
  -2  13  -1    1.64    0.63
   2  13   1    0.88    0.65
  -2  13  -1    0.73    0.67
  -2 -13   1    0.09    0.77
   2 -13   2    0.88    0.95
   2  13  -2    2.10    0.73
  -2  13   2    1.19    0.67
  -2 -13  -2    2.33    0.71
  -2  13   2    1.54    0.69
  -2  13   2    2.10    0.55
  -2  13  -2    1.46    0.60
  -2  13  -2    1.90    0.70
   2  13   2    3.69    0.65
  -2 -13   2    2.81    0.74
  -2 -13   2    2.79    0.87
  -2 -13  -3    1.31    0.58
   2 -13   3   -0.48    0.63
  -2  13   3    1.09    0.59
   2  13  -3   -0.40    0.88
  -2  13   3    1.45    0.75
  -2  13   3    1.22    0.74
  -2  13  -3    0.75    0.45
   2  13   3    0.29    0.51
  -2 -13   3    2.88    0.81
   3  13   0   -0.01    0.57
  -3  13   0    0.09    0.65
  -3  13   0   -0.27    0.52
  -3 -13   0   -0.37    0.67
  -3  13   1    0.37    0.92
   3  13  -1    0.68    0.57
  -3 -13  -1   -0.08    0.66
  -3  13   1    0.77    0.52
   3 -13   1    2.31    1.05
  -3  13   1    0.48    0.64
  -3  13  -1    0.15    0.85
  -3 -13   1   -1.12    0.65
   3  13   1    1.21    0.61
   3  13   1    1.19    0.62
  -3  13  -1    0.23    0.53
  -3  13   2    1.15    0.80
   3 -13   2    1.15    0.75
   3  13  -2    1.26    1.01
  -3  13   2    0.57    0.56
  -3  13   2   -0.22    0.47
  -3 -13  -2    0.84    0.57
  -3  13  -2   -0.77    0.55
   3  13   2   -0.39    0.52
   3  13   2    0.39    0.57
  -3  13  -2   -1.50    0.74
  -3 -13   2    0.13    0.62
  -3  13   3   -0.14    0.40
  -3  13   3   -0.54    0.44
   3 -13   3    1.60    0.60
   3  13  -3    1.03    0.76
  -3  13  -3   -0.17    0.38
  -4  13   0    0.36    0.44
  -4  13   0   -0.26    0.54
   4  13   0    0.06    0.69
  -4 -13   0    0.53    0.53
   4  13  -1    0.40    0.53
  -4 -13  -1   -0.34    0.48
  -4  13   1    0.25    0.47
  -4  13   1   -0.44    0.53
  -4  13  -1   -0.26    0.39
  -4  13  -1   -0.29    0.57
  -4 -13   1    0.44    0.51
   4  13  -2    2.80    0.82
  -4  13  -2    1.14    0.39
   0  14   0   32.98    2.03
   0 -14   0   32.18    2.36
   0  14   0   30.92    1.73
   0 -14  -1    0.07    0.69
   0  14   1    0.04    0.58
   0  14  -1   -0.29    0.55
   0  14   1   -0.97    0.51
   0 -14   1   -0.33    0.70
   0 -14  -2   11.56    1.02
   0  14  -2    8.19    0.94
   0  14   2   10.19    0.96
   1  14   0   -0.20    0.95
  -1  14   0   -0.18    0.42
  -1  14   0    1.29    0.69
  -1  14   1   25.08    1.40
  -1  14   1   25.87    1.64
  -1  14   1   25.81    1.53
  -1 -14  -1   24.03    1.57
   1  14  -1   25.06    1.51
  -1  14  -1   23.03    1.34
   1  14   1   26.97    1.50
  -1 -14   1   21.20    1.56
  -1  14  -1   21.71    1.45
  -1  14   2    0.86    0.43
  -1  14   2   -0.30    0.43
   1 -14   2    1.90    0.65
  -1 -14  -2   -0.38    0.57
  -1  14   2    0.31    0.52
   1  14   2   -0.24    0.58
   1 -14  -2    0.26    0.67
  -1 -14   2    1.99    0.74
   2  14   0   20.81    1.26
  -2  14   0   19.82    1.23
  -2  14   0   18.88    1.28
  -2 -14   0   17.52    1.34
  -2 -14  -1   -0.11    0.61
  -2  14   1    0.12    0.54
  -2  14   1    1.49    0.60
   2  14  -1    0.49    0.54
   2  14   1   -0.79    0.41
  -2  14  -1   -0.85    0.37
  -2 -14   1    1.91    0.60
   0   0   0    0.00    0.00
;
_shelx_hkl_checksum               26769
_olex2_submission_special_instructions 'No special instructions were received'
